data_structure

_audit_creation_method RASPA-1.0
_audit_creation_date 2023-5-23
_audit_author_name 'Poobodin Mano'

_cell_length_a    40.6896
_cell_length_b    41.376
_cell_length_c    41.1751
_cell_angle_alpha 89.9992
_cell_angle_beta  89.998
_cell_angle_gamma 119.873
_cell_volume      60110.7

_symmetry_cell_setting          triclinic
_symmetry_space_group_name_Hall 'P 1'
_symmetry_space_group_name_H-M  'P 1'
_symmetry_Int_Tables_number     1

_symmetry_equiv_pos_as_xyz 'x,y,z'

loop_
_atom_site_label
_atom_site_type_symbol
_atom_site_fract_x
_atom_site_fract_y
_atom_site_fract_z
_atom_site_charge
C1       C      0.462640000000     0.619980000000     0.312100000000     0.404756   
C2       C      0.477210000000     0.564180000000     0.226350000000     0.407068   
C3       C      0.408830000000     0.498980000000     0.308790000000     0.395903   
C4       C      0.366770000000     0.556530000000     0.243730000000     0.414872   
C5       C      0.144540000000     0.628650000000     0.051950000000     0.408078   
C6       C      0.077640000000     0.575880000000     0.141930000000     0.407825   
C7       C      0.067790000000     0.506650000000     0.560290000000     0.399033   
C8       C      0.174890000000     0.562630000000     0.117340000000     0.412619   
C9       C      0.342310000000     0.815920000000     0.434230000000     0.414833   
C10      C      0.404300000000     0.885960000000     0.353660000000     0.397911   
C11      C      0.464700000000     0.913300000000     0.446630000000     0.40563    
C12      C      0.444880000000     0.814560000000     0.399250000000     0.404182   
C13      C      0.812930000000     0.349950000000     0.325840000000     0.409744   
C14      C      0.891340000000     0.409060000000     0.398540000000     0.398396   
C15      C      0.903050000000     0.472910000000     0.308630000000     0.4029     
C16      C      0.812820000000     0.451600000000     0.367790000000     0.404765   
C17      C      0.556370000000     0.373230000000     0.531520000000     0.414654   
C18      C      0.498120000000     0.414700000000     0.468510000000     0.398053   
C19      C      0.563840000000     0.482700000000     0.053060000000     0.408792   
C20      C      0.621930000000     0.471760000000     0.467480000000     0.404739   
C21      C      0.631060000000     0.148780000000     0.208120000000     0.408733   
C22      C      0.578410000000     0.089600000000     0.109360000000     0.40469    
C23      C      0.512810000000     0.062680000000     0.193830000000     0.398653   
C24      C      0.567240000000     0.179260000000     0.145380000000     0.406989   
C25      C      0.523870000000     0.313080000000     0.061600000000    -0.0201108  
C26      C      0.598270000000     0.242120000000     0.120740000000    -0.0200487  
C27      C      0.529810000000     0.209090000000     0.127360000000    -0.0202404  
C28      C      0.542640000000     0.244210000000     0.108760000000     0.0134323  
C29      C      0.581650000000     0.262650000000     0.104780000000     0.0147876  
C30      C      0.600690000000     0.295550000000     0.086750000000    -0.0655465  
C31      C      0.590630000000     0.342030000000     0.552050000000    -0.0198662  
C32      C      0.520580000000     0.258370000000     0.095450000000    -0.0642349  
C33      C      0.578700000000     0.309470000000     0.073250000000     0.0146519  
C34      C      0.539790000000     0.291730000000     0.077730000000     0.0132641  
C35      C      0.756730000000     0.459730000000     0.360460000000    -0.0205753  
C36      C      0.692040000000     0.503650000000     0.461670000000    -0.0216436  
C37      C      0.652390000000     0.476680000000     0.414150000000    -0.0217552  
C38      C      0.691130000000     0.483230000000     0.408000000000     0.0142073  
C39      C      0.713860000000     0.498650000000     0.435130000000     0.0138508  
C40      C      0.750030000000     0.502400000000     0.437070000000    -0.0644177  
C41      C      0.797090000000     0.487240000000     0.407630000000    -0.0206397  
C42      C      0.703180000000     0.470600000000     0.381470000000    -0.0649604  
C43      C      0.762390000000     0.490400000000     0.410230000000     0.0137132  
C44      C      0.739490000000     0.474840000000     0.383220000000     0.0141732  
C45      C      0.700090000000     0.188110000000     0.219150000000    -0.0209855  
C46      C      0.754910000000     0.287440000000     0.327050000000    -0.0203328  
C47      C      0.799770000000     0.302630000000     0.282800000000    -0.0204512  
C48      C      0.764940000000     0.266330000000     0.276760000000     0.0136913  
C49      C      0.739350000000     0.257750000000     0.302000000000     0.0139394  
C50      C      0.702670000000     0.226920000000     0.300420000000    -0.0649089  
C51      C      0.655230000000     0.173810000000     0.263180000000    -0.021071   
C52      C      0.755280000000     0.244310000000     0.248640000000    -0.0645271  
C53      C      0.693160000000     0.204700000000     0.272490000000     0.0138779  
C54      C      0.718790000000     0.213040000000     0.247320000000     0.0137453  
C55      C      0.399760000000     0.936490000000     0.325010000000    -0.0215143  
C56      C      0.476290000000     0.994940000000     0.205420000000    -0.0210914  
C57      C      0.462080000000     0.036650000000     0.236040000000    -0.0211636  
C58      C      0.443500000000     0.998970000000     0.251070000000     0.0137673  
C59      C      0.451630000000     0.975220000000     0.233480000000     0.0140856  
C60      C      0.441790000000     0.939660000000     0.244960000000    -0.0651357  
C61      C      0.414480000000     0.895340000000     0.294120000000    -0.021779   
C62      C      0.424960000000     0.988270000000     0.281160000000    -0.0644574  
C63      C      0.422760000000     0.928770000000     0.274750000000     0.0143931  
C64      C      0.414480000000     0.952380000000     0.292380000000     0.0137601  
C65      C      0.565070000000     0.079050000000     0.050360000000    -0.021423   
C66      C      0.510800000000     0.937390000000     0.492600000000    -0.0204771  
C67      C      0.497620000000     0.980060000000     0.462270000000    -0.020321   
C68      C      0.522090000000     0.999100000000     0.490600000000     0.0142208  
C69      C      0.529950000000     0.974930000000     0.507820000000     0.0135359  
C70      C      0.549920000000     0.985620000000     0.537270000000    -0.0644074  
C71      C      0.580290000000     0.037760000000     0.080470000000    -0.020907   
C72      C      0.535160000000     0.034370000000     0.001850000000    -0.065409   
C73      C      0.563230000000     0.021190000000     0.048530000000     0.0136141  
C74      C      0.555070000000     0.045090000000     0.031230000000     0.0145045  
C75      C      0.901680000000     0.405850000000     0.457710000000    -0.021571   
C76      C      0.049870000000     0.467010000000     0.510690000000    -0.021665   
C77      C      0.000940000000     0.459310000000     0.548760000000    -0.021441   
C78      C      0.983850000000     0.441100000000     0.517410000000     0.0139869  
C79      C      0.011750000000     0.445380000000     0.495640000000     0.0140938  
C80      C      0.003290000000     0.435270000000     0.462910000000    -0.0645081  
C81      C      0.950200000000     0.412400000000     0.419640000000    -0.021421   
C82      C      0.946140000000     0.426810000000     0.507590000000    -0.0647851  
C83      C      0.965390000000     0.420210000000     0.453240000000     0.0140255  
C84      C      0.937600000000     0.416240000000     0.474990000000     0.0143484  
C85      C      0.918510000000     0.505570000000     0.255180000000    -0.0208408  
C86      C      0.066750000000     0.576640000000     0.201210000000    -0.0210456  
C87      C      0.016860000000     0.567480000000     0.163600000000    -0.0207283  
C88      C      0.001750000000     0.557590000000     0.197160000000     0.01394    
C89      C      0.030440000000     0.563490000000     0.218680000000     0.0143158  
C90      C      0.022830000000     0.552830000000     0.251320000000    -0.0649089  
C91      C      0.969240000000     0.518660000000     0.293300000000    -0.0206304  
C92      C      0.963690000000     0.539580000000     0.206970000000    -0.0645827  
C93      C      0.984960000000     0.535880000000     0.261340000000     0.0141625  
C94      C      0.956070000000     0.528910000000     0.239670000000     0.0138712  
C95      C      0.183850000000     0.697090000000     0.043720000000    -0.0210332  
C96      C      0.278650000000     0.759060000000     0.432540000000    -0.0201237  
C97      C      0.296040000000     0.799900000000     0.479480000000    -0.0201474  
C98      C      0.259830000000     0.764860000000     0.485440000000     0.0137052  
C99      C      0.250100000000     0.741450000000     0.458730000000     0.0139058  
C100     C      0.219630000000     0.704830000000     0.459790000000    -0.0648728  
C101     C      0.168840000000     0.654910000000     0.497440000000    -0.021155   
C102     C      0.239210000000     0.753070000000     0.514510000000    -0.0646154  
C103     C      0.198940000000     0.693110000000     0.488790000000     0.0139312  
C104     C      0.208330000000     0.716620000000     0.515400000000     0.0137855  
C105     C      0.571980000000     0.501890000000     0.111110000000    -0.0207216  
C106     C      0.497960000000     0.573360000000     0.168640000000    -0.0206917  
C107     C      0.526130000000     0.549440000000     0.206870000000    -0.0204428  
C108     C      0.536560000000     0.545930000000     0.173020000000     0.0139194  
C109     C      0.521090000000     0.560280000000     0.151270000000     0.014023   
C110     C      0.524460000000     0.557680000000     0.117620000000    -0.0647775  
C111     C      0.548240000000     0.530220000000     0.072960000000    -0.0204233  
C112     C      0.554990000000     0.526930000000     0.162250000000    -0.0647339  
C113     C      0.543980000000     0.539770000000     0.106860000000     0.0139751  
C114     C      0.558230000000     0.524210000000     0.128590000000     0.0139913  
C115     C      0.390920000000     0.468520000000     0.362880000000    -0.0221464  
C116     C      0.467890000000     0.396870000000     0.414130000000    -0.0220013  
C117     C      0.442530000000     0.421590000000     0.454190000000    -0.0219329  
C118     C      0.428560000000     0.423180000000     0.421240000000     0.0139503  
C119     C      0.443280000000     0.409290000000     0.398310000000     0.0140808  
C120     C      0.439740000000     0.413670000000     0.364950000000    -0.064761   
C121     C      0.417840000000     0.445400000000     0.322800000000    -0.0222279  
C122     C      0.409080000000     0.441700000000     0.412000000000    -0.0647007  
C123     C      0.419860000000     0.431800000000     0.355710000000     0.0139675  
C124     C      0.404690000000     0.445220000000     0.378640000000     0.013982   
C125     C      0.461990000000     0.649770000000     0.364140000000    -0.0216784  
C126     C      0.484810000000     0.796980000000     0.366040000000    -0.0207009  
C127     C      0.447980000000     0.757220000000     0.410860000000    -0.0205499  
C128     C      0.464340000000     0.738730000000     0.391120000000     0.0142813  
C129     C      0.485280000000     0.761300000000     0.365450000000     0.0137193  
C130     C      0.499420000000     0.748020000000     0.340910000000    -0.0643242  
C131     C      0.498690000000     0.688870000000     0.319060000000    -0.0214985  
C132     C      0.456500000000     0.701830000000     0.393720000000    -0.0650553  
C133     C      0.492080000000     0.711210000000     0.343780000000     0.0136748  
C134     C      0.471200000000     0.688790000000     0.369540000000     0.0142582  
C135     C      0.201660000000     0.525700000000     0.142640000000    -0.0201853  
C136     C      0.337870000000     0.590090000000     0.217350000000    -0.0198415  
C137     C      0.303870000000     0.522360000000     0.215740000000    -0.0200481  
C138     C      0.283720000000     0.537470000000     0.196280000000     0.0132343  
C139     C      0.303590000000     0.576100000000     0.196910000000     0.0146162  
C140     C      0.291390000000     0.597210000000     0.179530000000    -0.0654647  
C141     C      0.238770000000     0.593380000000     0.142100000000    -0.0200095  
C142     C      0.249640000000     0.517780000000     0.178900000000    -0.0642782  
C143     C      0.257810000000     0.577620000000     0.161790000000     0.0146597  
C144     C      0.237090000000     0.539000000000     0.161810000000     0.0133215  
C145     C      0.462770000000     0.618720000000     0.812400000000     0.404724   
C146     C      0.476780000000     0.562620000000     0.726640000000     0.407176   
C147     C      0.408630000000     0.497710000000     0.809390000000     0.395816   
C148     C      0.366500000000     0.555140000000     0.744360000000     0.415091   
C149     C      0.145290000000     0.627790000000     0.552150000000     0.407704   
C150     C      0.077780000000     0.575360000000     0.641990000000     0.407813   
C151     C      0.067710000000     0.507420000000     0.060010000000     0.399265   
C152     C      0.174840000000     0.561620000000     0.617930000000     0.412614   
C153     C      0.343220000000     0.815390000000     0.934870000000     0.414551   
C154     C      0.404880000000     0.885330000000     0.854330000000     0.398488   
C155     C      0.465880000000     0.912500000000     0.946970000000     0.40581    
C156     C      0.445460000000     0.813610000000     0.899490000000     0.404372   
C157     C      0.812640000000     0.349900000000     0.825780000000     0.409787   
C158     C      0.891190000000     0.409050000000     0.898380000000     0.398679   
C159     C      0.902890000000     0.472790000000     0.808430000000     0.402734   
C160     C      0.812770000000     0.451710000000     0.867630000000     0.404999   
C161     C      0.557560000000     0.374330000000     0.032630000000     0.414358   
C162     C      0.498660000000     0.414860000000     0.969430000000     0.397977   
C163     C      0.563090000000     0.481660000000     0.552640000000     0.408631   
C164     C      0.622450000000     0.472310000000     0.967870000000     0.404667   
C165     C      0.630080000000     0.148750000000     0.708510000000     0.408655   
C166     C      0.576820000000     0.089820000000     0.609680000000     0.404687   
C167     C      0.511930000000     0.062480000000     0.694570000000     0.398389   
C168     C      0.566120000000     0.179370000000     0.646240000000     0.407347   
C169     C      0.522580000000     0.312080000000     0.560690000000    -0.0200697  
C170     C      0.597140000000     0.242050000000     0.621290000000    -0.0199849  
C171     C      0.528730000000     0.209230000000     0.628180000000    -0.0202824  
C172     C      0.541510000000     0.244040000000     0.609120000000     0.0134464  
C173     C      0.580490000000     0.262350000000     0.604970000000     0.0147659  
C174     C      0.599460000000     0.294840000000     0.586400000000    -0.0654883  
C175     C      0.592110000000     0.343510000000     0.053350000000    -0.0203028  
C176     C      0.519410000000     0.257990000000     0.595480000000    -0.0641855  
C177     C      0.577410000000     0.308480000000     0.572530000000     0.0146854  
C178     C      0.538540000000     0.290960000000     0.577220000000     0.0132619  
C179     C      0.756640000000     0.459810000000     0.860430000000    -0.0205317  
C180     C      0.692520000000     0.504250000000     0.961720000000    -0.0215483  
C181     C      0.652570000000     0.476950000000     0.914420000000    -0.0217937  
C182     C      0.691280000000     0.483520000000     0.908120000000     0.0142279  
C183     C      0.714190000000     0.499120000000     0.935120000000     0.0138036  
C184     C      0.750380000000     0.502900000000     0.936930000000    -0.0643817  
C185     C      0.797280000000     0.487590000000     0.907400000000    -0.0206698  
C186     C      0.703190000000     0.470760000000     0.881580000000    -0.0649751  
C187     C      0.762580000000     0.490760000000     0.910090000000     0.0137315  
C188     C      0.739520000000     0.475040000000     0.883190000000     0.0141564  
C189     C      0.699180000000     0.188010000000     0.719310000000    -0.0210857  
C190     C      0.754600000000     0.287420000000     0.827140000000    -0.0203768  
C191     C      0.799250000000     0.302530000000     0.782730000000    -0.0204425  
C192     C      0.764370000000     0.266240000000     0.776780000000     0.0136968  
C193     C      0.738890000000     0.257720000000     0.802110000000     0.013967   
C194     C      0.702190000000     0.226920000000     0.800630000000    -0.0649247  
C195     C      0.654530000000     0.173820000000     0.763500000000    -0.0210625  
C196     C      0.754550000000     0.244200000000     0.748660000000    -0.0645791  
C197     C      0.692520000000     0.204680000000     0.772710000000     0.0138687  
C198     C      0.718020000000     0.212970000000     0.747440000000     0.013804   
C199     C      0.400030000000     0.935840000000     0.825950000000    -0.0215552  
C200     C      0.475810000000     0.994720000000     0.706150000000    -0.021207   
C201     C      0.461470000000     0.036190000000     0.737010000000    -0.0210856  
C202     C      0.443160000000     0.998500000000     0.752010000000     0.0137295  
C203     C      0.451360000000     0.974890000000     0.734280000000     0.0141366  
C204     C      0.441760000000     0.939360000000     0.745670000000    -0.0651337  
C205     C      0.414860000000     0.894920000000     0.794800000000    -0.0217591  
C206     C      0.424790000000     0.987680000000     0.782170000000    -0.0644749  
C207     C      0.422900000000     0.928350000000     0.775520000000     0.0143952  
C208     C      0.414550000000     0.951820000000     0.793310000000     0.0138092  
C209     C      0.562860000000     0.079340000000     0.550770000000    -0.0213083  
C210     C      0.511770000000     0.936460000000     0.993090000000    -0.0203188  
C211     C      0.499480000000     0.979390000000     0.962210000000    -0.0203072  
C212     C      0.523870000000     0.998420000000     0.990580000000     0.0143487  
C213     C      0.531240000000     0.974110000000     0.008110000000     0.013389   
C214     C      0.551050000000     0.984810000000     0.037640000000    -0.0643408  
C215     C      0.578950000000     0.038350000000     0.580340000000    -0.0209209  
C216     C      0.533010000000     0.034860000000     0.502130000000    -0.0652022  
C217     C      0.561700000000     0.021820000000     0.548430000000     0.0136725  
C218     C      0.553070000000     0.045580000000     0.531440000000     0.0144029  
C219     C      0.901580000000     0.405920000000     0.957540000000    -0.021469   
C220     C      0.049880000000     0.467750000000     0.010430000000    -0.0217436  
C221     C      0.000910000000     0.459910000000     0.048520000000    -0.0213915  
C222     C      0.983840000000     0.441600000000     0.017190000000     0.0139421  
C223     C      0.011760000000     0.445960000000     0.995420000000     0.0141746  
C224     C      0.003290000000     0.435750000000     0.962700000000    -0.0645324  
C225     C      0.950130000000     0.412580000000     0.919470000000    -0.0213116  
C226     C      0.946100000000     0.427150000000     0.007390000000    -0.0647825  
C227     C      0.965370000000     0.420510000000     0.953060000000     0.0140138  
C228     C      0.937550000000     0.416490000000     0.974820000000     0.0143514  
C229     C      0.918430000000     0.505350000000     0.754920000000    -0.0207183  
C230     C      0.066780000000     0.576380000000     0.701220000000    -0.0211454  
C231     C      0.016980000000     0.567110000000     0.663450000000    -0.020653   
C232     C      0.001790000000     0.557310000000     0.697000000000     0.013822   
C233     C      0.030430000000     0.563280000000     0.718600000000     0.0144128  
C234     C      0.022750000000     0.552690000000     0.751250000000    -0.0649808  
C235     C      0.969080000000     0.518570000000     0.793160000000    -0.0206944  
C236     C      0.963700000000     0.539290000000     0.706750000000    -0.0644404  
C237     C      0.984860000000     0.535740000000     0.761190000000     0.0142347  
C238     C      0.956020000000     0.528690000000     0.739450000000     0.0137793  
C239     C      0.184870000000     0.696230000000     0.543990000000    -0.0212381  
C240     C      0.279240000000     0.758940000000     0.933060000000    -0.0201177  
C241     C      0.297010000000     0.799640000000     0.980150000000    -0.0203272  
C242     C      0.260360000000     0.764980000000     0.985870000000     0.0138277  
C243     C      0.250390000000     0.741670000000     0.959070000000     0.0138951  
C244     C      0.219330000000     0.705370000000     0.959890000000    -0.0648641  
C245     C      0.167580000000     0.655870000000     0.997180000000    -0.0212526  
C246     C      0.239390000000     0.753430000000     0.014780000000    -0.0646372  
C247     C      0.198230000000     0.693920000000     0.988700000000     0.0139674  
C248     C      0.207780000000     0.717400000000     0.015340000000     0.0137893  
C249     C      0.571160000000     0.500450000000     0.610790000000    -0.0206442  
C250     C      0.497440000000     0.571910000000     0.668890000000    -0.0207251  
C251     C      0.525470000000     0.547650000000     0.706930000000    -0.0205528  
C252     C      0.535860000000     0.544260000000     0.673040000000     0.0139159  
C253     C      0.520470000000     0.558810000000     0.651400000000     0.0140605  
C254     C      0.523850000000     0.556400000000     0.617730000000    -0.0648262  
C255     C      0.547570000000     0.529120000000     0.572860000000    -0.020491   
C256     C      0.554210000000     0.525250000000     0.662110000000    -0.0646779  
C257     C      0.543300000000     0.538470000000     0.606820000000     0.0140193  
C258     C      0.557460000000     0.522710000000     0.628430000000     0.0139378  
C259     C      0.390730000000     0.467440000000     0.863550000000    -0.0221937  
C260     C      0.468160000000     0.396460000000     0.915180000000    -0.0218955  
C261     C      0.442820000000     0.421340000000     0.955100000000    -0.0220326  
C262     C      0.428690000000     0.422620000000     0.922150000000     0.0140419  
C263     C      0.443400000000     0.408650000000     0.899300000000     0.013997   
C264     C      0.439750000000     0.412800000000     0.865910000000    -0.0646774  
C265     C      0.417660000000     0.444190000000     0.823600000000    -0.0223172  
C266     C      0.409100000000     0.441000000000     0.912810000000    -0.0648075  
C267     C      0.419760000000     0.430780000000     0.856570000000     0.0139688  
C268     C      0.404590000000     0.444280000000     0.879430000000     0.0140318  
C269     C      0.462440000000     0.648690000000     0.864410000000    -0.0216394  
C270     C      0.485120000000     0.795860000000     0.866070000000    -0.0206848  
C271     C      0.448530000000     0.756240000000     0.911050000000    -0.0205822  
C272     C      0.464800000000     0.737700000000     0.891270000000     0.0142836  
C273     C      0.485600000000     0.760180000000     0.865510000000     0.0137074  
C274     C      0.499640000000     0.746830000000     0.840940000000    -0.0643366  
C275     C      0.498850000000     0.687640000000     0.819160000000    -0.0215031  
C276     C      0.457020000000     0.700820000000     0.893940000000    -0.0650364  
C277     C      0.492350000000     0.710050000000     0.843880000000     0.0137107  
C278     C      0.471620000000     0.687710000000     0.869730000000     0.0142315  
C279     C      0.201480000000     0.524580000000     0.643270000000    -0.0202045  
C280     C      0.337500000000     0.588740000000     0.718240000000    -0.0198533  
C281     C      0.303600000000     0.521020000000     0.716360000000    -0.0200504  
C282     C      0.283430000000     0.536180000000     0.696990000000     0.0132049  
C283     C      0.303250000000     0.574810000000     0.697780000000     0.0146445  
C284     C      0.291060000000     0.595980000000     0.680470000000    -0.065517   
C285     C      0.238550000000     0.592260000000     0.642990000000    -0.0199321  
C286     C      0.249400000000     0.516550000000     0.679530000000    -0.064212   
C287     C      0.257530000000     0.576440000000     0.662660000000     0.0146725  
C288     C      0.236840000000     0.537820000000     0.662530000000     0.0133002  
H1       H      0.509450000000     0.184350000000     0.113060000000     0.0480891  
H2       H      0.614360000000     0.234930000000     0.103130000000     0.0487998  
H3       H      0.631090000000     0.309570000000     0.083300000000     0.0465227  
H4       H      0.490140000000     0.244150000000     0.098620000000     0.0461955  
H5       H      0.503100000000     0.296170000000     0.042480000000     0.0440842  
H6       H      0.612300000000     0.367410000000     0.564870000000     0.0475993  
H7       H      0.516150000000     0.209580000000     0.150570000000     0.0447864  
H8       H      0.617590000000     0.258790000000     0.140780000000     0.0452038  
H9       H      0.602960000000     0.339090000000     0.528910000000     0.0454947  
H10      H      0.509740000000     0.322350000000     0.079400000000     0.0465057  
H11      H      0.630580000000     0.447250000000     0.409090000000     0.0504431  
H12      H      0.693420000000     0.490010000000     0.484500000000     0.049744   
H13      H      0.766970000000     0.512530000000     0.458910000000     0.0463108  
H14      H      0.684560000000     0.456590000000     0.361160000000     0.0462259  
H15      H      0.737510000000     0.429520000000     0.355870000000     0.0482966  
H16      H      0.822840000000     0.515230000000     0.406100000000     0.0445866  
H17      H      0.646620000000     0.495330000000     0.398740000000     0.0437472  
H18      H      0.703120000000     0.533750000000     0.466430000000     0.0439891  
H19      H      0.800020000000     0.472060000000     0.428710000000     0.048387   
H20      H      0.763650000000     0.474790000000     0.336890000000     0.0449684  
H21      H      0.805160000000     0.322750000000     0.262810000000     0.0474257  
H22      H      0.736030000000     0.299330000000     0.331080000000     0.0475088  
H23      H      0.682100000000     0.221330000000     0.319400000000     0.0460701  
H24      H      0.774640000000     0.251920000000     0.228330000000     0.0462996  
H25      H      0.703460000000     0.204290000000     0.196610000000     0.0487922  
H26      H      0.647240000000     0.148840000000     0.278460000000     0.0435119  
H27      H      0.824890000000     0.298960000000     0.285400000000     0.0444957  
H28      H      0.758870000000     0.276540000000     0.350510000000     0.0444832  
H29      H      0.633170000000     0.182030000000     0.265760000000     0.0481002  
H30      H      0.712090000000     0.169510000000     0.214990000000     0.0447061  
H31      H      0.480650000000     0.058580000000     0.253640000000     0.0485645  
H32      H      0.502790000000     0.993360000000     0.205900000000     0.0488993  
H33      H      0.450180000000     0.922090000000     0.232130000000     0.0462491  
H34      H      0.420530000000     0.007500000000     0.295810000000     0.0464103  
H35      H      0.416550000000     0.956390000000     0.344640000000     0.0508969  
H36      H      0.390840000000     0.869850000000     0.283060000000     0.0445831  
H37      H      0.440570000000     0.043330000000     0.226630000000     0.0455373  
H38      H      0.461240000000     0.982870000000     0.182200000000     0.0442731  
H39      H      0.439760000000     0.891790000000     0.296030000000     0.0504001  
H40      H      0.369620000000     0.929110000000     0.327490000000     0.0446871  
H41      H      0.512610000000     0.992800000000     0.439170000000     0.0450328  
H42      H      0.531830000000     0.929700000000     0.483840000000     0.0441351  
H43      H      0.554740000000     0.966300000000     0.551400000000     0.0462138  
H44      H      0.527470000000     0.052510000000     0.989090000000     0.0463022  
H45      H      0.588330000000     0.104070000000     0.038400000000     0.0438525  
H46      H      0.564500000000     0.018630000000     0.100850000000     0.0501399  
H47      H      0.470910000000     0.981230000000     0.463060000000     0.047984   
H48      H      0.491160000000     0.915680000000     0.509860000000     0.0472927  
H49      H      0.610340000000     0.044520000000     0.081460000000     0.0455665  
H50      H      0.540240000000     0.083180000000     0.053330000000     0.0495574  
H51      H      0.992760000000     0.438180000000     0.568320000000     0.0445945  
H52      H      0.063090000000     0.449300000000     0.513650000000     0.0451465  
H53      H      0.025370000000     0.440590000000     0.445500000000     0.0464061  
H54      H      0.924910000000     0.425760000000     0.524090000000     0.0462708  
H55      H      0.879170000000     0.377480000000     0.464920000000     0.0444158  
H56      H      0.967620000000     0.436100000000     0.403060000000     0.0508468  
H57      H      0.991920000000     0.479670000000     0.555850000000     0.0497665  
H58      H      0.068970000000     0.491850000000     0.495870000000     0.0502771  
H59      H      0.949300000000     0.386900000000     0.410020000000     0.0446029  
H60      H      0.891700000000     0.425940000000     0.462810000000     0.050641   
H61      H      0.015610000000     0.592240000000     0.154880000000     0.0453641  
H62      H      0.087900000000     0.605340000000     0.208940000000     0.0439684  
H63      H      0.045050000000     0.556090000000     0.267760000000     0.0462173  
H64      H      0.941060000000     0.532830000000     0.189770000000     0.0462566  
H65      H      0.902550000000     0.520850000000     0.256610000000     0.0440095  
H66      H      0.979550000000     0.499470000000     0.300900000000     0.0487898  
H67      H      0.000830000000     0.543990000000     0.146450000000     0.0498837  
H68      H      0.078610000000     0.557940000000     0.205640000000     0.0493297  
H69      H      0.977020000000     0.540370000000     0.312280000000     0.0450762  
H70      H      0.901210000000     0.479150000000     0.241620000000     0.0488192  
H71      H      0.317660000000     0.804350000000     0.498140000000     0.0472935  
H72      H      0.290800000000     0.741280000000     0.425330000000     0.0474752  
H73      H      0.213280000000     0.685950000000     0.439530000000     0.046078   
H74      H      0.248070000000     0.771030000000     0.036130000000     0.046252   
H75      H      0.201400000000     0.699160000000     0.065170000000     0.0486457  
H76      H      0.142500000000     0.646980000000     0.483530000000     0.0437816  
H77      H      0.291610000000     0.824320000000     0.479500000000     0.0439558  
H78      H      0.265930000000     0.764440000000     0.410790000000     0.0443876  
H79      H      0.177960000000     0.634110000000     0.492560000000     0.0484823  
H80      H      0.164970000000     0.708300000000     0.050350000000     0.0446672  
H81      H      0.551620000000     0.569120000000     0.220960000000     0.045637   
H82      H      0.510000000000     0.603860000000     0.165410000000     0.0445998  
H83      H      0.511320000000     0.567820000000     0.100680000000     0.0461211  
H84      H      0.565030000000     0.513740000000     0.179160000000     0.0461165  
H85      H      0.602940000000     0.513750000000     0.114730000000     0.0444844  
H86      H      0.520630000000     0.516450000000     0.059930000000     0.0481954  
H87      H      0.511950000000     0.522050000000     0.219520000000     0.0482519  
H88      H      0.468160000000     0.558790000000     0.159850000000     0.0484356  
H89      H      0.568450000000     0.555570000000     0.059290000000     0.0453938  
H90      H      0.557070000000     0.472410000000     0.119450000000     0.0484184  
H91      H      0.418770000000     0.401530000000     0.469740000000     0.044363   
H92      H      0.454860000000     0.366110000000     0.412390000000     0.0449932  
H93      H      0.453600000000     0.405290000000     0.347130000000     0.0462764  
H94      H      0.399690000000     0.454580000000     0.429840000000     0.0462558  
H95      H      0.359540000000     0.454690000000     0.364440000000     0.0452149  
H96      H      0.446180000000     0.459940000000     0.310980000000     0.0502134  
H97      H      0.456420000000     0.449410000000     0.466110000000     0.0502108  
H98      H      0.496520000000     0.410170000000     0.402850000000     0.0514108  
H99      H      0.398040000000     0.421810000000     0.307140000000     0.0444544  
H100     H      0.403430000000     0.496530000000     0.374350000000     0.0512177  
H101     H      0.459820000000     0.762810000000     0.435860000000     0.0455107  
H102     H      0.513710000000     0.820880000000     0.370380000000     0.0450228  
H103     H      0.513840000000     0.764860000000     0.319880000000     0.0462582  
H104     H      0.438320000000     0.683610000000     0.412720000000     0.0462228  
H105     H      0.476850000000     0.641640000000     0.382190000000     0.0437654  
H106     H      0.489100000000     0.691980000000     0.294550000000     0.0488499  
H107     H      0.416590000000     0.739940000000     0.412370000000     0.0482869  
H108     H      0.473740000000     0.801710000000     0.342910000000     0.049113   
H109     H      0.529240000000     0.697500000000     0.317910000000     0.0441029  
H110     H      0.430970000000     0.630150000000     0.366000000000     0.0503293  
H111     H      0.312030000000     0.505300000000     0.200500000000     0.0464397  
H112     H      0.363920000000     0.608560000000     0.203270000000     0.0477364  
H113     H      0.307170000000     0.627380000000     0.179870000000     0.046455   
H114     H      0.233720000000     0.487630000000     0.178760000000     0.0460999  
H115     H      0.201010000000     0.508580000000     0.121600000000     0.0441069  
H116     H      0.232920000000     0.612550000000     0.156710000000     0.0482925  
H117     H      0.286040000000     0.504960000000     0.236200000000     0.0437875  
H118     H      0.336280000000     0.605820000000     0.238600000000     0.0455134  
H119     H      0.256370000000     0.608840000000     0.120800000000     0.0451434  
H120     H      0.176120000000     0.508880000000     0.157840000000     0.0471976  
H121     H      0.508190000000     0.184280000000     0.614220000000     0.0482276  
H122     H      0.613200000000     0.234610000000     0.603860000000     0.048882   
H123     H      0.629830000000     0.308710000000     0.582790000000     0.0464966  
H124     H      0.488990000000     0.243900000000     0.598790000000     0.0461828  
H125     H      0.501670000000     0.294840000000     0.541790000000     0.043999   
H126     H      0.612900000000     0.368400000000     0.067250000000     0.0477716  
H127     H      0.515300000000     0.210190000000     0.651380000000     0.0447062  
H128     H      0.616500000000     0.259020000000     0.641200000000     0.0451361  
H129     H      0.604400000000     0.340780000000     0.030100000000     0.045941   
H130     H      0.508580000000     0.321720000000     0.578300000000     0.0466023  
H131     H      0.630750000000     0.447480000000     0.909520000000     0.0504422  
H132     H      0.694080000000     0.490760000000     0.984590000000     0.0497392  
H133     H      0.767460000000     0.513170000000     0.958690000000     0.0463032  
H134     H      0.684440000000     0.456610000000     0.861380000000     0.0462292  
H135     H      0.737400000000     0.429570000000     0.855970000000     0.0482662  
H136     H      0.823010000000     0.515580000000     0.905700000000     0.0445883  
H137     H      0.646670000000     0.495490000000     0.898980000000     0.0437432  
H138     H      0.703590000000     0.534370000000     0.966360000000     0.0439762  
H139     H      0.800340000000     0.472550000000     0.928510000000     0.0484246  
H140     H      0.763420000000     0.474740000000     0.836800000000     0.04494    
H141     H      0.804590000000     0.322640000000     0.762750000000     0.0474328  
H142     H      0.735770000000     0.299350000000     0.831260000000     0.047547   
H143     H      0.681710000000     0.221370000000     0.819680000000     0.0460796  
H144     H      0.773810000000     0.251770000000     0.728290000000     0.0463354  
H145     H      0.702460000000     0.204190000000     0.696790000000     0.0488321  
H146     H      0.646570000000     0.148850000000     0.778780000000     0.0435094  
H147     H      0.824360000000     0.298820000000     0.785230000000     0.0444855  
H148     H      0.758640000000     0.276520000000     0.850560000000     0.0445005  
H149     H      0.632510000000     0.182080000000     0.766180000000     0.0481155  
H150     H      0.711110000000     0.169380000000     0.715070000000     0.0447658  
H151     H      0.480060000000     0.058160000000     0.754570000000     0.0485192  
H152     H      0.502400000000     0.993320000000     0.706460000000     0.0489574  
H153     H      0.450200000000     0.921900000000     0.732710000000     0.0462477  
H154     H      0.420310000000     0.006810000000     0.796910000000     0.0464278  
H155     H      0.416860000000     0.955710000000     0.845570000000     0.0509395  
H156     H      0.391260000000     0.869410000000     0.783750000000     0.0446098  
H157     H      0.439780000000     0.042720000000     0.727750000000     0.0454945  
H158     H      0.460650000000     0.982610000000     0.682970000000     0.0442841  
H159     H      0.440240000000     0.891510000000     0.796560000000     0.0503758  
H160     H      0.369870000000     0.928340000000     0.828570000000     0.0447008  
H161     H      0.514710000000     0.991850000000     0.939130000000     0.0449966  
H162     H      0.532590000000     0.928360000000     0.984610000000     0.0440689  
H163     H      0.555450000000     0.965380000000     0.052010000000     0.0461974  
H164     H      0.524940000000     0.052870000000     0.489610000000     0.0462064  
H165     H      0.585810000000     0.104560000000     0.538780000000     0.0438364  
H166     H      0.563460000000     0.019060000000     0.600710000000     0.0500752  
H167     H      0.472980000000     0.980960000000     0.962730000000     0.0479769  
H168     H      0.491860000000     0.915000000000     0.010400000000     0.0472585  
H169     H      0.609090000000     0.045390000000     0.581070000000     0.0455959  
H170     H      0.537830000000     0.083100000000     0.554080000000     0.0495249  
H171     H      0.992820000000     0.438830000000     0.068110000000     0.0445975  
H172     H      0.063230000000     0.450160000000     0.013400000000     0.045148   
H173     H      0.025380000000     0.441120000000     0.945290000000     0.0464226  
H174     H      0.924840000000     0.426040000000     0.023890000000     0.0462653  
H175     H      0.879160000000     0.377520000000     0.964800000000     0.0443701  
H176     H      0.967480000000     0.436240000000     0.902850000000     0.0508445  
H177     H      0.991790000000     0.480210000000     0.055570000000     0.0497466  
H178     H      0.068880000000     0.492590000000     0.995580000000     0.0503185  
H179     H      0.949320000000     0.387080000000     0.909910000000     0.0445506  
H180     H      0.891490000000     0.425930000000     0.962630000000     0.0506305  
H181     H      0.015760000000     0.591870000000     0.654650000000     0.0453268  
H182     H      0.087900000000     0.605110000000     0.708900000000     0.0439855  
H183     H      0.044940000000     0.556000000000     0.767750000000     0.0462358  
H184     H      0.941100000000     0.532470000000     0.689480000000     0.0461912  
H185     H      0.902420000000     0.520590000000     0.756250000000     0.0439762  
H186     H      0.979410000000     0.499420000000     0.800840000000     0.0488287  
H187     H      0.000980000000     0.543590000000     0.646340000000     0.0498497  
H188     H      0.078640000000     0.557700000000     0.705770000000     0.0494064  
H189     H      0.976790000000     0.540310000000     0.812090000000     0.0451102  
H190     H      0.901170000000     0.478890000000     0.741380000000     0.0487623  
H191     H      0.318370000000     0.803490000000     0.998850000000     0.0472721  
H192     H      0.290980000000     0.740770000000     0.926000000000     0.0474092  
H193     H      0.212820000000     0.686500000000     0.939600000000     0.0460865  
H194     H      0.247740000000     0.770800000000     0.535780000000     0.0462395  
H195     H      0.203400000000     0.698110000000     0.564610000000     0.0486869  
H196     H      0.141420000000     0.648530000000     0.983220000000     0.0437062  
H197     H      0.293240000000     0.824450000000     0.980270000000     0.0441227  
H198     H      0.266960000000     0.764660000000     0.911190000000     0.0444664  
H199     H      0.176170000000     0.634700000000     0.992180000000     0.048738   
H200     H      0.165760000000     0.707080000000     0.550900000000     0.0451375  
H201     H      0.550980000000     0.567190000000     0.721060000000     0.0456837  
H202     H      0.509560000000     0.602440000000     0.665780000000     0.0446241  
H203     H      0.510790000000     0.566710000000     0.600880000000     0.0461461  
H204     H      0.564200000000     0.511920000000     0.678930000000     0.0460866  
H205     H      0.602110000000     0.512220000000     0.614430000000     0.0444795  
H206     H      0.519970000000     0.515470000000     0.559800000000     0.0482113  
H207     H      0.511190000000     0.520200000000     0.719460000000     0.048266   
H208     H      0.467630000000     0.557450000000     0.660120000000     0.0484345  
H209     H      0.567830000000     0.554540000000     0.559300000000     0.0454359  
H210     H      0.556180000000     0.470920000000     0.618980000000     0.0483912  
H211     H      0.419160000000     0.401320000000     0.970760000000     0.0443869  
H212     H      0.455220000000     0.365690000000     0.913640000000     0.0449742  
H213     H      0.453630000000     0.404370000000     0.848140000000     0.0462428  
H214     H      0.399720000000     0.453950000000     0.930570000000     0.0463148  
H215     H      0.359350000000     0.453550000000     0.865120000000     0.0452097  
H216     H      0.445970000000     0.458690000000     0.811740000000     0.050291   
H217     H      0.456660000000     0.449250000000     0.966870000000     0.0502566  
H218     H      0.496750000000     0.409740000000     0.903810000000     0.0514136  
H219     H      0.397840000000     0.420520000000     0.808030000000     0.0444727  
H220     H      0.403190000000     0.495500000000     0.874920000000     0.0512695  
H221     H      0.460490000000     0.761900000000     0.936010000000     0.0454998  
H222     H      0.514040000000     0.819780000000     0.870270000000     0.0449971  
H223     H      0.513940000000     0.763610000000     0.819850000000     0.0462633  
H224     H      0.438960000000     0.682670000000     0.913030000000     0.0462242  
H225     H      0.477430000000     0.640670000000     0.882420000000     0.0437375  
H226     H      0.489130000000     0.690650000000     0.794680000000     0.0488811  
H227     H      0.417150000000     0.738970000000     0.912660000000     0.0482967  
H228     H      0.473910000000     0.800500000000     0.842980000000     0.0490774  
H229     H      0.529410000000     0.696290000000     0.817900000000     0.0440795  
H230     H      0.431440000000     0.629050000000     0.866420000000     0.0503301  
H231     H      0.311810000000     0.504070000000     0.701030000000     0.0464537  
H232     H      0.363550000000     0.607340000000     0.704230000000     0.0477447  
H233     H      0.306810000000     0.626140000000     0.680920000000     0.0464831  
H234     H      0.233520000000     0.486390000000     0.679260000000     0.04607    
H235     H      0.200920000000     0.507560000000     0.622180000000     0.0441069  
H236     H      0.232590000000     0.611340000000     0.657650000000     0.0482842  
H237     H      0.285770000000     0.503500000000     0.736770000000     0.0437886  
H238     H      0.335830000000     0.604320000000     0.739570000000     0.0455262  
H239     H      0.256240000000     0.607860000000     0.621770000000     0.0451546  
H240     H      0.175880000000     0.507700000000     0.658380000000     0.0471697  
In1      In     0.428210000000     0.560010000000     0.272400000000     2.38172    
In2      In     0.117150000000     0.569260000000     0.092430000000     2.38794    
In3      In     0.412900000000     0.857050000000     0.409480000000     2.38759    
In4      In     0.854040000000     0.419910000000     0.349610000000     2.39244    
In5      In     0.559900000000     0.434880000000     0.505590000000     2.38461    
In6      In     0.573030000000     0.120370000000     0.165250000000     2.39508    
In7      In     0.428030000000     0.558640000000     0.772840000000     2.38196    
In8      In     0.117340000000     0.568450000000     0.592710000000     2.38776    
In9      In     0.413750000000     0.856310000000     0.909980000000     2.38803    
In10     In     0.853870000000     0.419890000000     0.849470000000     2.3929     
In11     In     0.560690000000     0.435640000000     0.006310000000     2.38484    
In12     In     0.571840000000     0.120370000000     0.665850000000     2.39525    
N1       N      0.557380000000     0.344930000000     0.047350000000    -0.1684     
N2       N      0.565140000000     0.208720000000     0.133410000000    -0.165607   
N3       N      0.791350000000     0.466590000000     0.377270000000    -0.166261   
N4       N      0.653430000000     0.486430000000     0.448530000000    -0.165885   
N5       N      0.660330000000     0.166360000000     0.229280000000    -0.167129   
N6       N      0.791510000000     0.315160000000     0.313450000000    -0.167676   
N7       N      0.403120000000     0.902810000000     0.325740000000    -0.164      
N8       N      0.483900000000     0.033270000000     0.209250000000    -0.164882   
N9       N      0.577930000000     0.071970000000     0.081420000000    -0.164929   
N10      N      0.490240000000     0.941760000000     0.465290000000    -0.167181   
N11      N      0.911710000000     0.406390000000     0.423450000000    -0.164052   
N12      N      0.041790000000     0.477430000000     0.542500000000    -0.164021   
N13      N      0.928250000000     0.498680000000     0.287730000000    -0.165978   
N14      N      0.056340000000     0.576320000000     0.167090000000    -0.165501   
N15      N      0.162820000000     0.657780000000     0.532180000000    -0.167104   
N16      N      0.307330000000     0.794190000000     0.447150000000    -0.168347   
N17      N      0.563570000000     0.505080000000     0.077020000000    -0.166214   
N18      N      0.500550000000     0.564480000000     0.202670000000    -0.165683   
N19      N      0.402860000000     0.470560000000     0.328970000000    -0.163237   
N20      N      0.469210000000     0.408170000000     0.448090000000    -0.163512   
N21      N      0.476580000000     0.650630000000     0.331390000000    -0.166169   
N22      N      0.459800000000     0.792200000000     0.393470000000    -0.164972   
N23      N      0.203700000000     0.560390000000     0.131690000000    -0.167495   
N24      N      0.337350000000     0.556010000000     0.227760000000    -0.168351   
N25      N      0.556020000000     0.343630000000     0.546020000000    -0.168359   
N26      N      0.564050000000     0.208840000000     0.634260000000    -0.165655   
N27      N      0.791350000000     0.466770000000     0.877120000000    -0.166216   
N28      N      0.653830000000     0.486900000000     0.948770000000    -0.165877   
N29      N      0.659460000000     0.166320000000     0.729570000000    -0.167074   
N30      N      0.791150000000     0.315100000000     0.813430000000    -0.167673   
N31      N      0.403550000000     0.902240000000     0.826510000000    -0.164119   
N32      N      0.483210000000     0.032980000000     0.710070000000    -0.16484    
N33      N      0.576180000000     0.072330000000     0.581620000000    -0.165019   
N34      N      0.491570000000     0.940950000000     0.965560000000    -0.167199   
N35      N      0.911600000000     0.406430000000     0.923290000000    -0.164088   
N36      N      0.041760000000     0.478150000000     0.042230000000    -0.164023   
N37      N      0.928100000000     0.498530000000     0.787520000000    -0.165962   
N38      N      0.056440000000     0.575950000000     0.667060000000    -0.165441   
N39      N      0.161510000000     0.658660000000     0.031930000000    -0.167036   
N40      N      0.308220000000     0.793820000000     0.947810000000    -0.168248   
N41      N      0.562830000000     0.503890000000     0.576740000000    -0.166208   
N42      N      0.500000000000     0.562850000000     0.702880000000    -0.165694   
N43      N      0.402650000000     0.469350000000     0.829650000000    -0.163209   
N44      N      0.469610000000     0.408020000000     0.949070000000    -0.163476   
N45      N      0.476840000000     0.649440000000     0.831610000000    -0.166184   
N46      N      0.460270000000     0.791170000000     0.893600000000    -0.165018   
N47      N      0.203540000000     0.559310000000     0.632410000000    -0.167544   
N48      N      0.337040000000     0.554640000000     0.728480000000    -0.168368   
O1       O      0.394960000000     0.586500000000     0.252940000000    -0.51113    
O2       O      0.368630000000     0.527550000000     0.249450000000    -0.499826   
O3       O      0.480040000000     0.556630000000     0.255580000000    -0.487632   
O4       O      0.472040000000     0.621370000000     0.282770000000    -0.494427   
O5       O      0.400280000000     0.523350000000     0.316670000000    -0.482874   
O6       O      0.437350000000     0.588420000000     0.321690000000    -0.491283   
O7       O      0.450330000000     0.570210000000     0.220430000000    -0.50293    
O8       O      0.425610000000     0.504310000000     0.281850000000    -0.48658    
O9       O      0.142860000000     0.534510000000     0.111970000000    -0.496466   
O10      O      0.177950000000     0.593430000000     0.109570000000    -0.508442   
O11      O      0.107800000000     0.574860000000     0.146230000000    -0.502899   
O12      O      0.142420000000     0.631690000000     0.082190000000    -0.498013   
O13      O      0.102240000000     0.526070000000     0.052060000000    -0.484186   
O14      O      0.131700000000     0.595820000000     0.041870000000    -0.499003   
O15      O      0.067700000000     0.574520000000     0.112690000000    -0.486685   
O16      O      0.058480000000     0.519110000000     0.084720000000    -0.493407   
O17      O      0.420160000000     0.807150000000     0.420920000000    -0.498861   
O18      O      0.454010000000     0.843650000000     0.382880000000    -0.486169   
O19      O      0.398540000000     0.895760000000     0.381100000000    -0.488796   
O20      O      0.351700000000     0.809050000000     0.407080000000    -0.507369   
O21      O      0.456490000000     0.879980000000     0.450960000000    -0.496762   
O22      O      0.368080000000     0.843740000000     0.448900000000    -0.506833   
O23      O      0.413250000000     0.860810000000     0.354130000000    -0.485316   
O24      O      0.447070000000     0.918330000000     0.423910000000    -0.494826   
O25      O      0.841740000000     0.456670000000     0.383310000000    -0.492969   
O26      O      0.804790000000     0.430940000000     0.343140000000    -0.499568   
O27      O      0.860790000000     0.409390000000     0.402990000000    -0.488647   
O28      O      0.843000000000     0.374290000000     0.312460000000    -0.502287   
O29      O      0.912830000000     0.467120000000     0.336060000000    -0.49388    
O30      O      0.803690000000     0.360500000000     0.351210000000    -0.505572   
O31      O      0.902570000000     0.413170000000     0.369470000000    -0.489859   
O32      O      0.868500000000     0.452380000000     0.301710000000    -0.494239   
O33      O      0.623340000000     0.475950000000     0.497850000000    -0.493914   
O34      O      0.589340000000     0.450630000000     0.456220000000    -0.490969   
O35      O      0.502780000000     0.430960000000     0.495480000000    -0.488468   
O36      O      0.586300000000     0.399930000000     0.520210000000    -0.511037   
O37      O      0.569380000000     0.455240000000     0.558050000000    -0.50389    
O38      O      0.527390000000     0.376710000000     0.529290000000    -0.499646   
O39      O      0.523590000000     0.407130000000     0.460890000000    -0.484856   
O40      O      0.555820000000     0.485140000000     0.523470000000    -0.491476   
O41      O      0.598500000000     0.180090000000     0.148250000000    -0.50743    
O42      O      0.538310000000     0.148800000000     0.153130000000    -0.48703    
O43      O      0.588080000000     0.082290000000     0.136300000000    -0.482412   
O44      O      0.635940000000     0.145740000000     0.178290000000    -0.496181   
O45      O      0.520920000000     0.096000000000     0.198700000000    -0.483094   
O46      O      0.597110000000     0.136290000000     0.216560000000    -0.509793   
O47      O      0.567120000000     0.112960000000     0.110450000000    -0.504008   
O48      O      0.534360000000     0.058560000000     0.174410000000    -0.500868   
O49      O      0.394650000000     0.585100000000     0.753650000000    -0.511385   
O50      O      0.368440000000     0.526180000000     0.749910000000    -0.499967   
O51      O      0.479620000000     0.554960000000     0.755830000000    -0.487798   
O52      O      0.471960000000     0.620020000000     0.783010000000    -0.49435    
O53      O      0.400050000000     0.522100000000     0.817160000000    -0.482874   
O54      O      0.437560000000     0.587190000000     0.822110000000    -0.491282   
O55      O      0.450010000000     0.568840000000     0.720830000000    -0.503118   
O56      O      0.425440000000     0.502970000000     0.782480000000    -0.486364   
O57      O      0.142850000000     0.533530000000     0.612370000000    -0.49603    
O58      O      0.177980000000     0.592460000000     0.610190000000    -0.508509   
O59      O      0.107850000000     0.574220000000     0.646420000000    -0.503237   
O60      O      0.142890000000     0.630880000000     0.582350000000    -0.497908   
O61      O      0.102330000000     0.525200000000     0.552360000000    -0.483923   
O62      O      0.132400000000     0.594930000000     0.542120000000    -0.4986     
O63      O      0.067950000000     0.573960000000     0.612700000000    -0.486817   
O64      O      0.058600000000     0.518400000000     0.584990000000    -0.493279   
O65      O      0.420900000000     0.806300000000     0.921270000000    -0.49907    
O66      O      0.454560000000     0.842680000000     0.883110000000    -0.486227   
O67      O      0.399150000000     0.894990000000     0.881850000000    -0.489059   
O68      O      0.352480000000     0.808470000000     0.907670000000    -0.507278   
O69      O      0.457180000000     0.879090000000     0.951590000000    -0.496879   
O70      O      0.369110000000     0.843140000000     0.949520000000    -0.506785   
O71      O      0.413930000000     0.860250000000     0.854650000000    -0.485388   
O72      O      0.448570000000     0.917650000000     0.924050000000    -0.495299   
O73      O      0.841740000000     0.456840000000     0.883080000000    -0.493241   
O74      O      0.804610000000     0.430920000000     0.843060000000    -0.499782   
O75      O      0.860630000000     0.409360000000     0.902830000000    -0.489035   
O76      O      0.842670000000     0.374210000000     0.812320000000    -0.502117   
O77      O      0.912640000000     0.467070000000     0.835900000000    -0.494048   
O78      O      0.803510000000     0.360490000000     0.851180000000    -0.505611   
O79      O      0.902410000000     0.413170000000     0.869310000000    -0.490109   
O80      O      0.868340000000     0.452230000000     0.801490000000    -0.494011   
O81      O      0.624060000000     0.476710000000     0.998220000000    -0.493954   
O82      O      0.589800000000     0.451060000000     0.956790000000    -0.491045   
O83      O      0.503410000000     0.431370000000     0.996280000000    -0.488597   
O84      O      0.587450000000     0.401140000000     0.021380000000    -0.510615   
O85      O      0.570190000000     0.456350000000     0.058650000000    -0.504165   
O86      O      0.528430000000     0.377540000000     0.030160000000    -0.499446   
O87      O      0.524190000000     0.407360000000     0.961830000000    -0.484669   
O88      O      0.556520000000     0.485960000000     0.023860000000    -0.491733   
O89      O      0.597340000000     0.180100000000     0.648950000000    -0.507998   
O90      O      0.537180000000     0.148960000000     0.654080000000    -0.487027   
O91      O      0.586970000000     0.082620000000     0.636440000000    -0.482086   
O92      O      0.634800000000     0.145640000000     0.678660000000    -0.49593    
O93      O      0.519860000000     0.095750000000     0.699480000000    -0.483046   
O94      O      0.596180000000     0.136330000000     0.717080000000    -0.509714   
O95      O      0.565240000000     0.112940000000     0.611100000000    -0.50426    
O96      O      0.533490000000     0.058510000000     0.675050000000    -0.50104    


