data_structure

_audit_creation_method RASPA-1.0
_audit_creation_date 2023-5-23
_audit_author_name 'Poobodin Mano'

_cell_length_a    46.8003
_cell_length_b    37.652
_cell_length_c    38.4997
_cell_angle_alpha 90.0008
_cell_angle_beta  89.9995
_cell_angle_gamma 89.9999
_cell_volume      67841.3

_symmetry_cell_setting          triclinic
_symmetry_space_group_name_Hall 'P 1'
_symmetry_space_group_name_H-M  'P 1'
_symmetry_Int_Tables_number     1

_symmetry_equiv_pos_as_xyz 'x,y,z'

loop_
_atom_site_label
_atom_site_type_symbol
_atom_site_fract_x
_atom_site_fract_y
_atom_site_fract_z
_atom_site_charge
C1       C      0.347450000000     0.042100000000     0.247860000000     0.402086   
C2       C      0.419940000000     0.054220000000     0.174770000000     0.412223   
C3       C      0.384160000000     0.145840000000     0.237770000000     0.412863   
C4       C      0.434840000000     0.061980000000     0.286620000000     0.401535   
C5       C      0.097220000000     0.970850000000     0.396110000000     0.402232   
C6       C      0.169800000000     0.959560000000     0.469370000000     0.41249    
C7       C      0.133970000000     0.867310000000     0.407590000000     0.412852   
C8       C      0.184610000000     0.950720000000     0.357610000000     0.401789   
C9       C      0.325800000000     0.041810000000     0.747760000000     0.401649   
C10      C      0.253330000000     0.054100000000     0.674650000000     0.412492   
C11      C      0.238430000000     0.061820000000     0.786460000000     0.401754   
C12      C      0.289350000000     0.145630000000     0.737640000000     0.41307    
C13      C      0.075680000000     0.969740000000     0.896090000000     0.40228    
C14      C      0.003090000000     0.958310000000     0.969140000000     0.411075   
C15      C      0.988420000000     0.949390000000     0.857340000000     0.40256    
C16      C      0.039080000000     0.866030000000     0.907480000000     0.413148   
C17      C      0.347670000000     0.487530000000     0.750980000000     0.402098   
C18      C      0.416500000000     0.466490000000     0.677860000000     0.407911   
C19      C      0.435040000000     0.442690000000     0.783000000000     0.402432   
C20      C      0.366960000000     0.378680000000     0.738320000000     0.408294   
C21      C      0.097650000000     0.524200000000     0.898390000000     0.402374   
C22      C      0.166290000000     0.545680000000     0.971470000000     0.407463   
C23      C      0.185160000000     0.568810000000     0.866290000000     0.40201    
C24      C      0.116970000000     0.633150000000     0.910040000000     0.408312   
C25      C      0.077110000000     0.524860000000     0.397880000000     0.402117   
C26      C      0.008300000000     0.546010000000     0.470850000000     0.407162   
C27      C      0.057470000000     0.633700000000     0.409580000000     0.408281   
C28      C      0.989530000000     0.569140000000     0.365620000000     0.40299    
C29      C      0.327230000000     0.488380000000     0.251200000000     0.401947   
C30      C      0.258400000000     0.467270000000     0.178000000000     0.407638   
C31      C      0.307890000000     0.379560000000     0.238610000000     0.408382   
C32      C      0.239810000000     0.443620000000     0.283170000000     0.402302   
C33      C      0.128740000000     0.509580000000     0.402260000000    -0.0208955  
C34      C      0.188580000000     0.433140000000     0.297290000000    -0.0209262  
C35      C      0.218600000000     0.464260000000     0.338820000000    -0.0209596  
C36      C      0.188140000000     0.466420000000     0.349260000000     0.0139823  
C37      C      0.171010000000     0.448520000000     0.325650000000     0.0138496  
C38      C      0.141140000000     0.449570000000     0.327960000000    -0.0648083  
C39      C      0.098760000000     0.477520000000     0.361400000000    -0.0209428  
C40      C      0.176320000000     0.486610000000     0.376260000000    -0.0648008  
C41      C      0.129340000000     0.469230000000     0.355350000000     0.0139878  
C42      C      0.146450000000     0.487390000000     0.378770000000     0.0138403  
C43      C      0.468600000000     0.548620000000     0.310970000000    -0.0208078  
C44      C      0.348790000000     0.535430000000     0.288120000000    -0.0209674  
C45      C      0.378840000000     0.503810000000     0.247000000000    -0.0209704  
C46      C      0.396510000000     0.525790000000     0.270720000000     0.0138742  
C47      C      0.379360000000     0.543710000000     0.294290000000     0.0139921  
C48      C      0.391130000000     0.563080000000     0.321900000000    -0.0648239  
C49      C      0.438540000000     0.579330000000     0.352740000000    -0.0210194  
C50      C      0.426370000000     0.526540000000     0.273300000000    -0.0647714  
C51      C      0.421000000000     0.564100000000     0.324290000000     0.0139203  
C52      C      0.438150000000     0.546440000000     0.300530000000     0.0139294  
C53      C      0.192590000000     0.558360000000     0.026260000000    -0.0202041  
C54      C      0.231990000000     0.454680000000     0.123290000000    -0.0202041  
C55      C      0.243400000000     0.515870000000     0.137980000000    -0.0203401  
C56      C      0.227310000000     0.514150000000     0.104790000000     0.0139097  
C57      C      0.220820000000     0.479260000000     0.096430000000     0.0139811  
C58      C      0.205610000000     0.470650000000     0.066210000000    -0.064855   
C59      C      0.181200000000     0.497160000000     0.011600000000    -0.0203444  
C60      C      0.218960000000     0.542410000000     0.083380000000    -0.0648326  
C61      C      0.197260000000     0.498900000000     0.044800000000     0.0139388  
C62      C      0.203750000000     0.533800000000     0.053160000000     0.0139522  
C63      C      0.431550000000     0.515210000000     0.638010000000    -0.0203183  
C64      C      0.993520000000     0.497440000000     0.510990000000    -0.0196517  
C65      C      0.981780000000     0.558570000000     0.525520000000    -0.0202913  
C66      C      0.970670000000     0.533970000000     0.552400000000     0.0140957  
C67      C      0.977360000000     0.499110000000     0.544130000000     0.0137879  
C68      C      0.469520000000     0.470250000000     0.566220000000    -0.0648395  
C69      C      0.443020000000     0.454070000000     0.623170000000    -0.020275   
C70      C      0.456110000000     0.541940000000     0.583580000000    -0.0647849  
C71      C      0.454250000000     0.478740000000     0.596420000000     0.0140087  
C72      C      0.447720000000     0.513610000000     0.604870000000     0.0138925  
C73      C      0.296060000000     0.502990000000     0.746790000000    -0.0209766  
C74      C      0.236460000000     0.578980000000     0.852290000000    -0.0209591  
C75      C      0.206360000000     0.548180000000     0.810620000000    -0.0209136  
C76      C      0.236800000000     0.545960000000     0.800160000000     0.0139771  
C77      C      0.253980000000     0.563670000000     0.823850000000     0.0138747  
C78      C      0.283850000000     0.562540000000     0.821500000000    -0.0647952  
C79      C      0.326150000000     0.534680000000     0.787820000000    -0.0209883  
C80      C      0.248560000000     0.525910000000     0.773020000000    -0.0648011  
C81      C      0.295590000000     0.543020000000     0.793980000000     0.0140034  
C82      C      0.278420000000     0.525060000000     0.770460000000     0.0138829  
C83      C      0.456170000000     0.463290000000     0.838710000000    -0.0210104  
C84      C      0.076080000000     0.477050000000     0.861590000000    -0.0211159  
C85      C      0.046030000000     0.508800000000     0.902610000000    -0.0207456  
C86      C      0.028340000000     0.487000000000     0.878750000000     0.0132846  
C87      C      0.045500000000     0.469020000000     0.855230000000     0.0140174  
C88      C      0.033750000000     0.449890000000     0.827450000000    -0.0646238  
C89      C      0.986400000000     0.434210000000     0.796240000000    -0.0201986  
C90      C      0.998490000000     0.486590000000     0.875920000000    -0.0643755  
C91      C      0.003890000000     0.449260000000     0.824790000000     0.0127227  
C92      C      0.986720000000     0.467080000000     0.848410000000     0.0146413  
C93      C      0.092500000000     0.683280000000     0.939830000000    -0.0201465  
C94      C      0.056730000000     0.812660000000     0.875940000000    -0.0196466  
C95      C      0.048340000000     0.808960000000     0.938150000000    -0.0198874  
C96      C      0.061140000000     0.775510000000     0.925010000000     0.014214   
C97      C      0.065970000000     0.777640000000     0.889540000000     0.0138905  
C98      C      0.078980000000     0.749790000000     0.871250000000    -0.0646639  
C99      C      0.101250000000     0.687060000000     0.877680000000    -0.0202138  
C100     C      0.068940000000     0.745380000000     0.944150000000    -0.0648459  
C101     C      0.086720000000     0.719620000000     0.890380000000     0.0138181  
C102     C      0.081790000000     0.717460000000     0.925830000000     0.0140942  
C103     C      0.342420000000     0.329000000000     0.707920000000    -0.0202049  
C104     C      0.307120000000     0.198470000000     0.769930000000    -0.0196127  
C105     C      0.298490000000     0.203200000000     0.707830000000    -0.0199759  
C106     C      0.311280000000     0.236460000000     0.721440000000     0.0142925  
C107     C      0.316250000000     0.233750000000     0.756840000000     0.0138826  
C108     C      0.329270000000     0.261330000000     0.775510000000    -0.0646323  
C109     C      0.351380000000     0.324240000000     0.769950000000    -0.0201518  
C110     C      0.318960000000     0.266930000000     0.702740000000    -0.0648986  
C111     C      0.336880000000     0.291850000000     0.756830000000     0.0137822  
C112     C      0.331810000000     0.294570000000     0.721440000000     0.0141992  
C113     C      0.352530000000     0.988650000000     0.768410000000    -0.0207326  
C114     C      0.468490000000     0.991650000000     0.813610000000    -0.020718   
C115     C      0.442470000000     0.937740000000     0.827810000000    -0.0208267  
C116     C      0.424750000000     0.961500000000     0.805860000000     0.0139856  
C117     C      0.439610000000     0.992270000000     0.797800000000     0.0139608  
C118     C      0.426540000000     0.020440000000     0.780120000000    -0.06494    
C119     C      0.378630000000     0.042640000000     0.754570000000    -0.0207002  
C120     C      0.395980000000     0.957190000000     0.796600000000    -0.0648011  
C121     C      0.397890000000     0.015980000000     0.770530000000     0.0140526  
C122     C      0.383010000000     0.985180000000     0.778500000000     0.0140293  
C123     C      0.102500000000     0.022970000000     0.875770000000    -0.0206173  
C124     C      0.218300000000     0.019950000000     0.829940000000    -0.0207053  
C125     C      0.192430000000     0.074210000000     0.816570000000    -0.0208964  
C126     C      0.174680000000     0.050230000000     0.838270000000     0.0139965  
C127     C      0.189460000000     0.019270000000     0.845860000000     0.013907   
C128     C      0.176340000000     0.990930000000     0.863230000000    -0.0648859  
C129     C      0.128450000000     0.968660000000     0.888760000000    -0.020591   
C130     C      0.145960000000     0.054570000000     0.847730000000    -0.064789   
C131     C      0.147740000000     0.995410000000     0.873010000000     0.0140485  
C132     C      0.132950000000     0.026390000000     0.865530000000     0.0139453  
C133     C      0.081650000000     0.683970000000     0.439490000000    -0.0201677  
C134     C      0.116580000000     0.813870000000     0.375950000000    -0.0195597  
C135     C      0.124890000000     0.810140000000     0.438170000000    -0.0199695  
C136     C      0.112350000000     0.776580000000     0.424940000000     0.0142761  
C137     C      0.107560000000     0.778720000000     0.389460000000     0.013866   
C138     C      0.094800000000     0.750770000000     0.371080000000    -0.0646105  
C139     C      0.072990000000     0.687770000000     0.377330000000    -0.020148   
C140     C      0.104740000000     0.746320000000     0.444000000000    -0.0648971  
C141     C      0.087250000000     0.720460000000     0.390120000000     0.0137585  
C142     C      0.092140000000     0.718290000000     0.425580000000     0.0141489  
C143     C      0.210860000000     0.042390000000     0.637500000000    -0.0199491  
C144     C      0.212290000000     0.971650000000     0.506370000000    -0.0201037  
C145     C      0.165140000000     0.988080000000     0.527500000000    -0.0200541  
C146     C      0.187540000000     0.999060000000     0.552570000000     0.0137972  
C147     C      0.214420000000     0.989680000000     0.540510000000     0.013777   
C148     C      0.239200000000     0.997420000000     0.559510000000    -0.0648256  
C149     C      0.258000000000     0.025950000000     0.616370000000    -0.0201492  
C150     C      0.183940000000     0.016700000000     0.584320000000    -0.0648438  
C151     C      0.235600000000     0.015070000000     0.591260000000     0.0138205  
C152     C      0.208720000000     0.024440000000     0.603320000000     0.0136987  
C153     C      0.332350000000     0.329810000000     0.208240000000    -0.0201672  
C154     C      0.366590000000     0.198770000000     0.270080000000    -0.0195338  
C155     C      0.375380000000     0.203530000000     0.208020000000    -0.0199343  
C156     C      0.362810000000     0.236910000000     0.221660000000     0.0142793  
C157     C      0.357740000000     0.234180000000     0.257040000000     0.0138782  
C158     C      0.344890000000     0.261860000000     0.275730000000    -0.0646468  
C159     C      0.323220000000     0.325020000000     0.270240000000    -0.0202234  
C160     C      0.355390000000     0.267500000000     0.203010000000    -0.0648556  
C161     C      0.337550000000     0.292510000000     0.257090000000     0.0138221  
C162     C      0.342710000000     0.295250000000     0.221730000000     0.0141618  
C163     C      0.960560000000     0.970660000000     0.006000000000    -0.0201002  
C164     C      0.462400000000     0.042190000000     0.137710000000    -0.0200493  
C165     C      0.415190000000     0.026280000000     0.116400000000    -0.020149   
C166     C      0.437570000000     0.015230000000     0.091330000000     0.0138167  
C167     C      0.464490000000     0.024310000000     0.103490000000     0.0137514  
C168     C      0.988910000000     0.015740000000     0.083930000000    -0.0643273  
C169     C      0.007730000000     0.986830000000     0.027260000000    -0.021047   
C170     C      0.433920000000     0.997680000000     0.059530000000    -0.0648568  
C171     C      0.985310000000     0.998020000000     0.052220000000     0.0143031  
C172     C      0.958420000000     0.988790000000     0.040090000000     0.0137059  
C173     C      0.204710000000     0.992170000000     0.313710000000    -0.0207747  
C174     C      0.320610000000     0.988940000000     0.268310000000    -0.0206966  
C175     C      0.294630000000     0.043080000000     0.254730000000    -0.020625   
C176     C      0.275310000000     0.016400000000     0.270570000000     0.0140328  
C177     C      0.290120000000     0.985520000000     0.278390000000     0.014002   
C178     C      0.277110000000     0.957510000000     0.296420000000    -0.0647697  
C179     C      0.230620000000     0.938090000000     0.327630000000    -0.0208129  
C180     C      0.246690000000     0.020940000000     0.280250000000    -0.0649492  
C181     C      0.248380000000     0.961890000000     0.305770000000     0.0139874  
C182     C      0.233580000000     0.992760000000     0.297860000000     0.0139744  
C183     C      0.980410000000     0.074550000000     0.315810000000    -0.0212814  
C184     C      0.044450000000     0.969610000000     0.388740000000    -0.0202782  
C185     C      0.070330000000     0.023910000000     0.375490000000    -0.0208385  
C186     C      0.039890000000     0.027190000000     0.365180000000     0.0144799  
C187     C      0.025140000000     0.996220000000     0.372810000000     0.0130688  
C188     C      0.996570000000     0.991580000000     0.362950000000    -0.063854   
C189     C      0.954610000000     0.020300000000     0.329410000000    -0.0205302  
C190     C      0.026860000000     0.055210000000     0.347160000000    -0.0658287  
C191     C      0.983440000000     0.019760000000     0.345350000000     0.013401   
C192     C      0.998180000000     0.050720000000     0.337620000000     0.0150441  
C193     C      0.847060000000     0.041710000000     0.247170000000     0.402208   
C194     C      0.919500000000     0.053810000000     0.173950000000     0.412149   
C195     C      0.883560000000     0.145540000000     0.236730000000     0.413087   
C196     C      0.934430000000     0.061940000000     0.285740000000     0.40156    
C197     C      0.597500000000     0.970640000000     0.397040000000     0.402216   
C198     C      0.670110000000     0.959390000000     0.470150000000     0.412384   
C199     C      0.634360000000     0.867050000000     0.408420000000     0.413171   
C200     C      0.684800000000     0.950470000000     0.358300000000     0.401833   
C201     C      0.825890000000     0.042120000000     0.748120000000     0.402213   
C202     C      0.753540000000     0.054640000000     0.675170000000     0.412408   
C203     C      0.738650000000     0.062850000000     0.787010000000     0.401382   
C204     C      0.789700000000     0.146260000000     0.738020000000     0.413295   
C205     C      0.575790000000     0.970960000000     0.896440000000     0.402185   
C206     C      0.503290000000     0.959370000000     0.969520000000     0.412106   
C207     C      0.488510000000     0.950370000000     0.857710000000     0.401506   
C208     C      0.539290000000     0.867160000000     0.907650000000     0.41307    
C209     C      0.847460000000     0.488320000000     0.750620000000     0.402245   
C210     C      0.916140000000     0.467290000000     0.677230000000     0.40789    
C211     C      0.935070000000     0.444180000000     0.782320000000     0.401916   
C212     C      0.867000000000     0.379500000000     0.738160000000     0.408612   
C213     C      0.597380000000     0.525020000000     0.897670000000     0.402301   
C214     C      0.665960000000     0.546360000000     0.970820000000     0.407375   
C215     C      0.684860000000     0.569710000000     0.865690000000     0.402326   
C216     C      0.616680000000     0.634000000000     0.909570000000     0.408304   
C217     C      0.577440000000     0.524520000000     0.398420000000     0.402461   
C218     C      0.508890000000     0.545630000000     0.471770000000     0.407427   
C219     C      0.557950000000     0.633400000000     0.410470000000     0.408263   
C220     C      0.489840000000     0.569080000000     0.366660000000     0.402173   
C221     C      0.827010000000     0.488150000000     0.250130000000     0.40205    
C222     C      0.758060000000     0.467290000000     0.177120000000     0.407745   
C223     C      0.807430000000     0.379360000000     0.237540000000     0.408288   
C224     C      0.739610000000     0.443540000000     0.282390000000     0.40234    
C225     C      0.629080000000     0.509160000000     0.402440000000    -0.0209079  
C226     C      0.688420000000     0.433150000000     0.296750000000    -0.0209399  
C227     C      0.718630000000     0.464050000000     0.338220000000    -0.0208114  
C228     C      0.688220000000     0.466200000000     0.348860000000     0.0139053  
C229     C      0.670990000000     0.448420000000     0.325290000000     0.0139058  
C230     C      0.641130000000     0.449470000000     0.327800000000    -0.0648121  
C231     C      0.598910000000     0.477280000000     0.361650000000    -0.0209721  
C232     C      0.676530000000     0.486280000000     0.376030000000    -0.064748   
C233     C      0.629450000000     0.469010000000     0.355350000000     0.0140134  
C234     C      0.646680000000     0.487060000000     0.378740000000     0.0138478  
C235     C      0.968380000000     0.548310000000     0.309990000000    -0.0209434  
C236     C      0.848600000000     0.535390000000     0.286800000000    -0.0209872  
C237     C      0.878670000000     0.503340000000     0.246020000000    -0.0209636  
C238     C      0.896330000000     0.525440000000     0.269640000000     0.0139185  
C239     C      0.879170000000     0.543610000000     0.293010000000     0.0140119  
C240     C      0.890910000000     0.563140000000     0.320520000000    -0.0647642  
C241     C      0.938280000000     0.579440000000     0.351430000000    -0.0208837  
C242     C      0.926190000000     0.526100000000     0.272320000000    -0.0648151  
C243     C      0.920780000000     0.564070000000     0.323020000000     0.0138624  
C244     C      0.937950000000     0.546170000000     0.299450000000     0.0140513  
C245     C      0.692330000000     0.558860000000     0.025610000000    -0.0202396  
C246     C      0.731550000000     0.454880000000     0.122420000000    -0.0203196  
C247     C      0.743130000000     0.516000000000     0.137190000000    -0.0202844  
C248     C      0.727010000000     0.514400000000     0.104020000000     0.0138626  
C249     C      0.720420000000     0.479540000000     0.095620000000     0.0140537  
C250     C      0.705170000000     0.471040000000     0.065400000000    -0.0648839  
C251     C      0.680780000000     0.497730000000     0.010860000000    -0.0203338  
C252     C      0.718700000000     0.542720000000     0.082660000000    -0.0647987  
C253     C      0.696860000000     0.499360000000     0.044050000000     0.0139507  
C254     C      0.703440000000     0.534220000000     0.052450000000     0.0139731  
C255     C      0.930890000000     0.515890000000     0.637090000000    -0.0202991  
C256     C      0.494020000000     0.496970000000     0.511760000000    -0.0202982  
C257     C      0.482580000000     0.558100000000     0.526600000000    -0.0201298  
C258     C      0.471390000000     0.533450000000     0.553390000000     0.0139397  
C259     C      0.477920000000     0.498580000000     0.544930000000     0.013926   
C260     C      0.969090000000     0.470830000000     0.565550000000    -0.0647177  
C261     C      0.942660000000     0.454770000000     0.622570000000    -0.0201759  
C262     C      0.955330000000     0.542510000000     0.582540000000    -0.0648119  
C263     C      0.953760000000     0.479370000000     0.595700000000     0.0139755  
C264     C      0.947060000000     0.514230000000     0.603960000000     0.0139642  
C265     C      0.795840000000     0.503740000000     0.746400000000    -0.0209544  
C266     C      0.736170000000     0.579870000000     0.851750000000    -0.0208773  
C267     C      0.706090000000     0.549100000000     0.810040000000    -0.0209538  
C268     C      0.736550000000     0.546830000000     0.799640000000     0.0139889  
C269     C      0.753710000000     0.564530000000     0.823360000000     0.0138666  
C270     C      0.783580000000     0.563360000000     0.821060000000    -0.0648189  
C271     C      0.825900000000     0.535430000000     0.787470000000    -0.0209289  
C272     C      0.748320000000     0.526740000000     0.772530000000    -0.0647902  
C273     C      0.795340000000     0.543800000000     0.793570000000     0.0139957  
C274     C      0.778190000000     0.525850000000     0.770040000000     0.0138764  
C275     C      0.956260000000     0.465280000000     0.837820000000    -0.0214778  
C276     C      0.575940000000     0.477590000000     0.861100000000    -0.0209984  
C277     C      0.545820000000     0.509310000000     0.902070000000    -0.0209324  
C278     C      0.528220000000     0.486970000000     0.878600000000     0.0138559  
C279     C      0.545410000000     0.468990000000     0.855120000000     0.0140493  
C280     C      0.533690000000     0.449310000000     0.827700000000    -0.064864   
C281     C      0.486320000000     0.432510000000     0.797070000000    -0.0210297  
C282     C      0.498350000000     0.485950000000     0.876120000000    -0.0648107  
C283     C      0.503820000000     0.448020000000     0.825410000000     0.013912   
C284     C      0.486620000000     0.465720000000     0.849080000000     0.0139903  
C285     C      0.592210000000     0.684070000000     0.939460000000    -0.0202013  
C286     C      0.556980000000     0.813890000000     0.875980000000    -0.019577   
C287     C      0.548400000000     0.809950000000     0.938140000000    -0.0199265  
C288     C      0.561150000000     0.776500000000     0.924920000000     0.0142569  
C289     C      0.566090000000     0.778770000000     0.889470000000     0.0138985  
C290     C      0.579060000000     0.750940000000     0.871110000000    -0.0646442  
C291     C      0.601120000000     0.688080000000     0.877370000000    -0.0201533  
C292     C      0.568820000000     0.746250000000     0.943950000000    -0.0648365  
C293     C      0.586660000000     0.720640000000     0.890140000000     0.013803   
C294     C      0.581630000000     0.718350000000     0.925560000000     0.014158   
C295     C      0.842400000000     0.329750000000     0.707960000000    -0.0201716  
C296     C      0.807700000000     0.199080000000     0.770180000000    -0.019682   
C297     C      0.798690000000     0.203840000000     0.708170000000    -0.0198604  
C298     C      0.811520000000     0.237110000000     0.721690000000     0.0142455  
C299     C      0.816710000000     0.234380000000     0.757040000000     0.0139394  
C300     C      0.829790000000     0.261980000000     0.775620000000    -0.0646717  
C301     C      0.851750000000     0.324980000000     0.769910000000    -0.0202226  
C302     C      0.819030000000     0.267610000000     0.702950000000    -0.0648302  
C303     C      0.837230000000     0.292540000000     0.756890000000     0.0138272  
C304     C      0.831950000000     0.295280000000     0.721550000000     0.0141503  
C305     C      0.852410000000     0.988740000000     0.768610000000    -0.0206204  
C306     C      0.968530000000     0.990780000000     0.813250000000    -0.0207412  
C307     C      0.942280000000     0.937050000000     0.827520000000    -0.0208506  
C308     C      0.924620000000     0.960950000000     0.805650000000     0.0140033  
C309     C      0.939620000000     0.991620000000     0.797540000000     0.0140195  
C310     C      0.926620000000     0.019920000000     0.779970000000    -0.0649812  
C311     C      0.878740000000     0.042540000000     0.754720000000    -0.0206919  
C312     C      0.895800000000     0.956890000000     0.796530000000    -0.0647454  
C313     C      0.897920000000     0.015700000000     0.770530000000     0.0141362  
C314     C      0.882910000000     0.985010000000     0.778520000000     0.0139702  
C315     C      0.602530000000     0.024150000000     0.875890000000    -0.0206366  
C316     C      0.718530000000     0.021310000000     0.830800000000    -0.0207945  
C317     C      0.692550000000     0.075330000000     0.816860000000    -0.0209057  
C318     C      0.674790000000     0.051460000000     0.838640000000     0.0140041  
C319     C      0.689630000000     0.020630000000     0.846570000000     0.0139685  
C320     C      0.676530000000     0.992370000000     0.864070000000    -0.0649211  
C321     C      0.628600000000     0.970070000000     0.889460000000    -0.0206403  
C322     C      0.646020000000     0.055730000000     0.847890000000    -0.0647678  
C323     C      0.647870000000     0.996800000000     0.873640000000     0.0140834  
C324     C      0.633020000000     0.027640000000     0.865820000000     0.0139587  
C325     C      0.582250000000     0.683610000000     0.440350000000    -0.0201606  
C326     C      0.616920000000     0.813630000000     0.376810000000    -0.0195988  
C327     C      0.625450000000     0.809820000000     0.438990000000    -0.0199326  
C328     C      0.612880000000     0.776260000000     0.425770000000     0.0142594  
C329     C      0.607970000000     0.778460000000     0.390320000000     0.0139289  
C330     C      0.595150000000     0.750530000000     0.371970000000    -0.064659   
C331     C      0.573370000000     0.687520000000     0.378240000000    -0.0202178  
C332     C      0.605350000000     0.745970000000     0.444830000000    -0.0648542  
C333     C      0.587680000000     0.720190000000     0.391010000000     0.013838   
C334     C      0.592690000000     0.717960000000     0.426440000000     0.0141326  
C335     C      0.711040000000     0.042420000000     0.638230000000    -0.0199925  
C336     C      0.712620000000     0.971970000000     0.506950000000    -0.0199028  
C337     C      0.665410000000     0.987660000000     0.528380000000    -0.02015    
C338     C      0.687810000000     0.998910000000     0.553350000000     0.0138705  
C339     C      0.714730000000     0.989950000000     0.541120000000     0.0137074  
C340     C      0.739500000000     0.998010000000     0.559990000000    -0.064817   
C341     C      0.758250000000     0.026710000000     0.616800000000    -0.020114   
C342     C      0.684160000000     0.016440000000     0.585150000000    -0.06486    
C343     C      0.735860000000     0.015540000000     0.591790000000     0.0138045  
C344     C      0.708940000000     0.024510000000     0.604020000000     0.013734   
C345     C      0.831660000000     0.329480000000     0.207080000000    -0.0201847  
C346     C      0.866060000000     0.198530000000     0.268990000000    -0.0195563  
C347     C      0.874590000000     0.203130000000     0.206870000000    -0.0198982  
C348     C      0.862070000000     0.236540000000     0.220500000000     0.01428    
C349     C      0.857160000000     0.233900000000     0.255920000000     0.0139029  
C350     C      0.844420000000     0.261640000000     0.274630000000    -0.0646102  
C351     C      0.822790000000     0.324820000000     0.269150000000    -0.0202328  
C352     C      0.854610000000     0.267110000000     0.201830000000    -0.0648718  
C353     C      0.837010000000     0.292260000000     0.255970000000     0.0138193  
C354     C      0.842020000000     0.294920000000     0.220570000000     0.014188   
C355     C      0.460790000000     0.971760000000     0.006420000000    -0.0200573  
C356     C      0.961990000000     0.041760000000     0.136940000000    -0.0199956  
C357     C      0.914820000000     0.025580000000     0.115700000000    -0.0201259  
C358     C      0.937230000000     0.014470000000     0.090690000000     0.0138418  
C359     C      0.964120000000     0.023700000000     0.102820000000     0.0136615  
C360     C      0.489250000000     0.016360000000     0.084550000000    -0.0648349  
C361     C      0.507990000000     0.987680000000     0.027730000000    -0.0200891  
C362     C      0.933630000000     0.996750000000     0.058980000000    -0.0647815  
C363     C      0.485600000000     0.998830000000     0.052750000000     0.0138212  
C364     C      0.458690000000     0.989740000000     0.040590000000     0.0137558  
C365     C      0.704690000000     0.991800000000     0.314140000000    -0.020777   
C366     C      0.820380000000     0.988570000000     0.267940000000    -0.0206489  
C367     C      0.794260000000     0.042580000000     0.254260000000    -0.0206325  
C368     C      0.775050000000     0.015940000000     0.270370000000     0.0140593  
C369     C      0.789950000000     0.985140000000     0.278250000000     0.0139988  
C370     C      0.777070000000     0.957200000000     0.296530000000    -0.0647913  
C371     C      0.730750000000     0.937850000000     0.328170000000    -0.0208606  
C372     C      0.746480000000     0.020480000000     0.280240000000    -0.0649682  
C373     C      0.748370000000     0.961580000000     0.306070000000     0.0140062  
C374     C      0.733490000000     0.992360000000     0.298090000000     0.0139862  
C375     C      0.480750000000     0.074510000000     0.316890000000    -0.0208279  
C376     C      0.544750000000     0.969350000000     0.389570000000    -0.0206585  
C377     C      0.570590000000     0.023770000000     0.376650000000    -0.0206931  
C378     C      0.540160000000     0.027050000000     0.366270000000     0.0139912  
C379     C      0.525430000000     0.996020000000     0.373710000000     0.0140611  
C380     C      0.496890000000     0.991370000000     0.363730000000    -0.0649009  
C381     C      0.454980000000     0.020150000000     0.330150000000    -0.0207775  
C382     C      0.527150000000     0.055120000000     0.348330000000    -0.0647697  
C383     C      0.483770000000     0.019600000000     0.346200000000     0.0139635  
C384     C      0.498490000000     0.050630000000     0.338670000000     0.0139835  
H1       H      0.231200000000     0.449160000000     0.358310000000     0.0464249  
H2       H      0.187340000000     0.403680000000     0.297470000000     0.0451291  
H3       H      0.127760000000     0.436810000000     0.308710000000     0.0463831  
H4       H      0.189650000000     0.501960000000     0.393660000000     0.0464249  
H5       H      0.130680000000     0.500380000000     0.429580000000     0.045102   
H6       H      0.088440000000     0.488250000000     0.337590000000     0.0490436  
H7       H      0.228170000000     0.491110000000     0.335770000000     0.048811   
H8       H      0.181580000000     0.442970000000     0.271420000000     0.0469925  
H9       H      0.086940000000     0.453450000000     0.369880000000     0.0463596  
H10      H      0.135040000000     0.538020000000     0.400920000000     0.0470826  
H11      H      0.385160000000     0.475360000000     0.248080000000     0.0471383  
H12      H      0.338460000000     0.524470000000     0.311820000000     0.0490815  
H13      H      0.377720000000     0.575660000000     0.341230000000     0.0464313  
H14      H      0.439730000000     0.511390000000     0.255760000000     0.0464192  
H15      H      0.977930000000     0.521450000000     0.313110000000     0.048904   
H16      H      0.437210000000     0.608780000000     0.352800000000     0.045194   
H17      H      0.380800000000     0.513280000000     0.219780000000     0.0451448  
H18      H      0.336960000000     0.559570000000     0.279840000000     0.0463959  
H19      H      0.431600000000     0.569240000000     0.378540000000     0.0469616  
H20      H      0.481190000000     0.563850000000     0.291550000000     0.0464316  
H21      H      0.231660000000     0.531640000000     0.157780000000     0.0454139  
H22      H      0.214440000000     0.439280000000     0.135600000000     0.0474237  
H23      H      0.200550000000     0.443400000000     0.059700000000     0.0464186  
H24      H      0.224020000000     0.569660000000     0.089880000000     0.0464294  
H25      H      0.176840000000     0.577250000000     0.037450000000     0.0468419  
H26      H      0.192950000000     0.481360000000     0.991830000000     0.0454818  
H27      H      0.264880000000     0.527820000000     0.134170000000     0.0455237  
H28      H      0.247720000000     0.435780000000     0.112070000000     0.0468785  
H29      H      0.159710000000     0.485230000000     0.015400000000     0.0455356  
H30      H      0.210140000000     0.573770000000     0.013970000000     0.047443   
H31      H      0.997410000000     0.577600000000     0.536740000000     0.0470346  
H32      H      0.015060000000     0.485680000000     0.514900000000     0.0450233  
H33      H      0.474600000000     0.443020000000     0.559640000000     0.0464238  
H34      H      0.451010000000     0.569170000000     0.590150000000     0.0464083  
H35      H      0.443230000000     0.530920000000     0.657900000000     0.0454415  
H36      H      0.427320000000     0.435200000000     0.611830000000     0.0468737  
H37      H      0.964190000000     0.573830000000     0.513130000000     0.0475257  
H38      H      0.981910000000     0.481520000000     0.491200000000     0.0454563  
H39      H      0.460540000000     0.438640000000     0.635490000000     0.0474557  
H40      H      0.410070000000     0.527150000000     0.634150000000     0.0455363  
H41      H      0.196730000000     0.521350000000     0.813580000000     0.0488074  
H42      H      0.243420000000     0.568980000000     0.878110000000     0.0469642  
H43      H      0.297270000000     0.575160000000     0.840800000000     0.0464174  
H44      H      0.235180000000     0.510730000000     0.755530000000     0.0464148  
H45      H      0.289720000000     0.474560000000     0.747950000000     0.0471275  
H46      H      0.338010000000     0.558780000000     0.779480000000     0.0464066  
H47      H      0.193770000000     0.563390000000     0.791190000000     0.0464163  
H48      H      0.237790000000     0.608440000000     0.852260000000     0.0451503  
H49      H      0.336470000000     0.523760000000     0.811540000000     0.0490807  
H50      H      0.294100000000     0.512390000000     0.719540000000     0.0451526  
H51      H      0.043980000000     0.499210000000     0.929790000000     0.0449308  
H52      H      0.087740000000     0.452830000000     0.869980000000     0.0463483  
H53      H      0.047170000000     0.437220000000     0.808200000000     0.0462854  
H54      H      0.985140000000     0.501790000000     0.893430000000     0.0464726  
H55      H      0.443690000000     0.448030000000     0.858190000000     0.0464208  
H56      H      0.993470000000     0.444300000000     0.770490000000     0.0468387  
H57      H      0.039790000000     0.537280000000     0.901640000000     0.0470281  
H58      H      0.086570000000     0.487910000000     0.837950000000     0.0491689  
H59      H      0.987580000000     0.404740000000     0.796110000000     0.0452264  
H60      H      0.446420000000     0.490050000000     0.835740000000     0.0488776  
H61      H      0.062000000000     0.821360000000     0.958430000000     0.0473629  
H62      H      0.074760000000     0.827040000000     0.863470000000     0.0477707  
H63      H      0.083110000000     0.751660000000     0.843640000000     0.0461916  
H64      H      0.065460000000     0.743870000000     0.971910000000     0.0464708  
H65      H      0.109170000000     0.687620000000     0.959960000000     0.0469765  
H66      H      0.088050000000     0.673050000000     0.857980000000     0.0452041  
H67      H      0.026750000000     0.804180000000     0.949220000000     0.0450304  
H68      H      0.039220000000     0.809640000000     0.856680000000     0.0457048  
H69      H      0.122390000000     0.693380000000     0.866070000000     0.0456844  
H70      H      0.074880000000     0.667390000000     0.951360000000     0.0472685  
H71      H      0.312100000000     0.191160000000     0.687300000000     0.0474004  
H72      H      0.325220000000     0.183920000000     0.782050000000     0.0477033  
H73      H      0.333500000000     0.259020000000     0.803060000000     0.046233   
H74      H      0.315370000000     0.268880000000     0.675030000000     0.0465377  
H75      H      0.359010000000     0.325040000000     0.687630000000     0.0470589  
H76      H      0.338220000000     0.337890000000     0.789930000000     0.0452199  
H77      H      0.276860000000     0.208110000000     0.696950000000     0.0451897  
H78      H      0.289680000000     0.201120000000     0.789350000000     0.0457965  
H79      H      0.372570000000     0.317800000000     0.781370000000     0.0456878  
H80      H      0.324730000000     0.345030000000     0.696730000000     0.0473476  
H81      H      0.447200000000     0.912480000000     0.814060000000     0.0454179  
H82      H      0.985290000000     0.990400000000     0.792810000000     0.0453438  
H83      H      0.437820000000     0.045000000000     0.775050000000     0.04632    
H84      H      0.384070000000     0.933750000000     0.804030000000     0.0464833  
H85      H      0.346850000000     0.969130000000     0.747900000000     0.0459552  
H86      H      0.378320000000     0.067740000000     0.769780000000     0.0475734  
H87      H      0.431660000000     0.931510000000     0.852810000000     0.0487164  
H88      H      0.972180000000     0.014100000000     0.830410000000     0.0481339  
H89      H      0.385290000000     0.048720000000     0.727520000000     0.0455912  
H90      H      0.338120000000     0.984660000000     0.791030000000     0.048924   
H91      H      0.197280000000     0.099250000000     0.830650000000     0.0454352  
H92      H      0.235170000000     0.019780000000     0.850250000000     0.045277   
H93      H      0.187550000000     0.966240000000     0.867940000000     0.0462932  
H94      H      0.134110000000     0.078180000000     0.840680000000     0.0464331  
H95      H      0.096970000000     0.042270000000     0.896540000000     0.0458758  
H96      H      0.127970000000     0.943770000000     0.873220000000     0.0475172  
H97      H      0.181590000000     0.080840000000     0.791710000000     0.0486578  
H98      H      0.221650000000     0.996850000000     0.812410000000     0.0480021  
H99      H      0.135220000000     0.962160000000     0.915680000000     0.0455277  
H100     H      0.088000000000     0.027310000000     0.853290000000     0.048809   
H101     H      0.146480000000     0.805560000000     0.449300000000     0.045189   
H102     H      0.134130000000     0.811080000000     0.356700000000     0.0458198  
H103     H      0.090700000000     0.752640000000     0.343460000000     0.0461703  
H104     H      0.108190000000     0.744790000000     0.471760000000     0.0465124  
H105     H      0.099370000000     0.668240000000     0.451020000000     0.0472966  
H106     H      0.051830000000     0.693870000000     0.365650000000     0.0456255  
H107     H      0.111100000000     0.822370000000     0.458410000000     0.0473584  
H108     H      0.098460000000     0.828100000000     0.363490000000     0.0476908  
H109     H      0.086330000000     0.673940000000     0.357650000000     0.0452087  
H110     H      0.064930000000     0.688080000000     0.459600000000     0.046972   
H111     H      0.152730000000     0.011310000000     0.518010000000     0.0453576  
H112     H      0.224200000000     0.986410000000     0.485990000000     0.0452627  
H113     H      0.260180000000     0.990070000000     0.550090000000     0.0462161  
H114     H      0.162960000000     0.024010000000     0.593750000000     0.046193   
H115     H      0.202460000000     0.069970000000     0.636180000000     0.0460376  
H116     H      0.270400000000     0.002690000000     0.625780000000     0.0454408  
H117     H      0.150130000000     0.968700000000     0.539380000000     0.0458655  
H118     H      0.220740000000     0.944110000000     0.507730000000     0.0461372  
H119     H      0.273010000000     0.045360000000     0.604550000000     0.0458674  
H120     H      0.198890000000     0.027630000000     0.657840000000     0.0452074  
H121     H      0.397060000000     0.208230000000     0.197200000000     0.0452154  
H122     H      0.383990000000     0.201180000000     0.289580000000     0.045823   
H123     H      0.340580000000     0.259530000000     0.303260000000     0.0462371  
H124     H      0.359050000000     0.269480000000     0.175310000000     0.0465199  
H125     H      0.350180000000     0.345700000000     0.197170000000     0.0472981  
H126     H      0.301980000000     0.318770000000     0.281610000000     0.0457341  
H127     H      0.361720000000     0.191690000000     0.187430000000     0.0473467  
H128     H      0.348340000000     0.184390000000     0.282100000000     0.0476681  
H129     H      0.336440000000     0.338510000000     0.290250000000     0.0452162  
H130     H      0.315800000000     0.326060000000     0.187870000000     0.0471126  
H131     H      0.402620000000     0.003110000000     0.125720000000     0.0454209  
H132     H      0.474230000000     0.027260000000     0.158040000000     0.045268   
H133     H      0.009900000000     0.022940000000     0.093420000000     0.0457348  
H134     H      0.412920000000     0.990560000000     0.050040000000     0.0462445  
H135     H      0.452170000000     0.944290000000     0.007700000000     0.0461172  
H136     H      0.020260000000     0.009960000000     0.017770000000     0.0455078  
H137     H      0.400330000000     0.045870000000     0.104590000000     0.0458762  
H138     H      0.970500000000     0.069280000000     0.135570000000     0.046152   
H139     H      0.022620000000     0.967380000000     0.039240000000     0.0459797  
H140     H      0.948750000000     0.985430000000     0.985540000000     0.0453506  
H141     H      0.295000000000     0.068110000000     0.270050000000     0.0475547  
H142     H      0.335020000000     0.984800000000     0.290910000000     0.0489046  
H143     H      0.288980000000     0.933990000000     0.303730000000     0.0464592  
H144     H      0.235470000000     0.045570000000     0.275310000000     0.0463068  
H145     H      0.201300000000     0.015440000000     0.331010000000     0.0479749  
H146     H      0.225800000000     0.912920000000     0.313740000000     0.0454135  
H147     H      0.287980000000     0.049320000000     0.227710000000     0.0455659  
H148     H      0.326250000000     0.969500000000     0.247710000000     0.045925   
H149     H      0.241430000000     0.931680000000     0.352570000000     0.0487113  
H150     H      0.187880000000     0.992100000000     0.293360000000     0.0452227  
H151     H      0.075800000000     0.043340000000     0.396160000000     0.0459195  
H152     H      0.037670000000     0.963250000000     0.415690000000     0.0453685  
H153     H      0.985400000000     0.966890000000     0.367780000000     0.0462043  
H154     H      0.038680000000     0.078820000000     0.340020000000     0.0465755  
H155     H      0.975530000000     0.099660000000     0.329750000000     0.0456509  
H156     H      0.951310000000     0.997110000000     0.311970000000     0.0479923  
H157     H      0.084850000000     0.028160000000     0.353000000000     0.0488561  
H158     H      0.045000000000     0.944620000000     0.373350000000     0.0473626  
H159     H      0.438050000000     0.019900000000     0.350370000000     0.0453067  
H160     H      0.991240000000     0.081060000000     0.290910000000     0.0489089  
H161     H      0.731310000000     0.448870000000     0.357580000000     0.0464086  
H162     H      0.687150000000     0.403680000000     0.296810000000     0.0451409  
H163     H      0.627650000000     0.436790000000     0.308600000000     0.0464219  
H164     H      0.689950000000     0.501540000000     0.393410000000     0.0464111  
H165     H      0.631140000000     0.499840000000     0.429700000000     0.0451135  
H166     H      0.588480000000     0.488100000000     0.337950000000     0.0490984  
H167     H      0.728210000000     0.490910000000     0.335210000000     0.0487445  
H168     H      0.681330000000     0.443110000000     0.270970000000     0.0469985  
H169     H      0.587120000000     0.453180000000     0.370130000000     0.046413   
H170     H      0.635380000000     0.537610000000     0.401170000000     0.047105   
H171     H      0.884920000000     0.474880000000     0.247340000000     0.047164   
H172     H      0.838190000000     0.524640000000     0.310540000000     0.049118   
H173     H      0.877490000000     0.575920000000     0.339720000000     0.0464293  
H174     H      0.939560000000     0.510770000000     0.254950000000     0.0465107  
H175     H      0.478220000000     0.521770000000     0.313870000000     0.0487622  
H176     H      0.937030000000     0.608900000000     0.351270000000     0.0452053  
H177     H      0.880720000000     0.512590000000     0.218730000000     0.0451643  
H178     H      0.836840000000     0.559500000000     0.278300000000     0.0464274  
H179     H      0.931240000000     0.569590000000     0.377280000000     0.0469798  
H180     H      0.981050000000     0.563360000000     0.290530000000     0.0465822  
H181     H      0.731450000000     0.531790000000     0.157030000000     0.0454209  
H182     H      0.713980000000     0.439530000000     0.134740000000     0.0474571  
H183     H      0.700040000000     0.443820000000     0.058860000000     0.0464475  
H184     H      0.723840000000     0.569940000000     0.089200000000     0.0464289  
H185     H      0.676620000000     0.577790000000     0.036850000000     0.0468438  
H186     H      0.692470000000     0.481920000000     0.991060000000     0.0455062  
H187     H      0.764640000000     0.527870000000     0.133360000000     0.0455271  
H188     H      0.747230000000     0.435940000000     0.111160000000     0.046912   
H189     H      0.659260000000     0.485870000000     0.014670000000     0.0455443  
H190     H      0.709900000000     0.574230000000     0.013320000000     0.0474517  
H191     H      0.498320000000     0.576960000000     0.537890000000     0.0468047  
H192     H      0.515520000000     0.485050000000     0.515580000000     0.0454961  
H193     H      0.974310000000     0.443610000000     0.559120000000     0.0464969  
H194     H      0.950110000000     0.569740000000     0.588980000000     0.0464641  
H195     H      0.942480000000     0.531820000000     0.656900000000     0.0454741  
H196     H      0.927050000000     0.435720000000     0.611340000000     0.0468558  
H197     H      0.465040000000     0.573560000000     0.514330000000     0.0474343  
H198     H      0.482330000000     0.481210000000     0.491920000000     0.0454861  
H199     H      0.960260000000     0.439530000000     0.634970000000     0.0475225  
H200     H      0.909340000000     0.527630000000     0.633170000000     0.0455386  
H201     H      0.696430000000     0.522290000000     0.812970000000     0.0488391  
H202     H      0.743100000000     0.569870000000     0.877590000000     0.0469699  
H203     H      0.796990000000     0.575960000000     0.840370000000     0.0464599  
H204     H      0.734950000000     0.511570000000     0.755020000000     0.0464284  
H205     H      0.789490000000     0.475310000000     0.747580000000     0.0470896  
H206     H      0.837790000000     0.559520000000     0.779150000000     0.0464434  
H207     H      0.693550000000     0.564330000000     0.790580000000     0.046436   
H208     H      0.737520000000     0.609330000000     0.851710000000     0.0451334  
H209     H      0.836190000000     0.524490000000     0.811210000000     0.0490746  
H210     H      0.793910000000     0.513120000000     0.719140000000     0.0451858  
H211     H      0.543970000000     0.500080000000     0.929380000000     0.04516    
H212     H      0.587940000000     0.453630000000     0.869530000000     0.0464594  
H213     H      0.547120000000     0.436710000000     0.808410000000     0.0464506  
H214     H      0.484950000000     0.501150000000     0.893560000000     0.0464451  
H215     H      0.943550000000     0.450110000000     0.857160000000     0.0469967  
H216     H      0.493230000000     0.442420000000     0.771190000000     0.0470501  
H217     H      0.539350000000     0.537700000000     0.900760000000     0.0470741  
H218     H      0.586150000000     0.488460000000     0.837290000000     0.0490716  
H219     H      0.487720000000     0.403060000000     0.797240000000     0.0451474  
H220     H      0.947560000000     0.492490000000     0.834100000000     0.0489649  
H221     H      0.562040000000     0.822210000000     0.958520000000     0.0473571  
H222     H      0.575100000000     0.828260000000     0.863670000000     0.0477342  
H223     H      0.583270000000     0.752910000000     0.843530000000     0.0462395  
H224     H      0.565250000000     0.744630000000     0.971690000000     0.0465168  
H225     H      0.608830000000     0.688250000000     0.959680000000     0.0470175  
H226     H      0.587930000000     0.674210000000     0.857570000000     0.045245   
H227     H      0.526770000000     0.805200000000     0.949100000000     0.0451821  
H228     H      0.539530000000     0.811030000000     0.856610000000     0.0458037  
H229     H      0.622300000000     0.694350000000     0.865840000000     0.0456887  
H230     H      0.574520000000     0.668200000000     0.950860000000     0.0473105  
H231     H      0.812190000000     0.191840000000     0.687510000000     0.0473468  
H232     H      0.825890000000     0.184540000000     0.782110000000     0.0477206  
H233     H      0.834180000000     0.259670000000     0.803130000000     0.046265   
H234     H      0.815270000000     0.269590000000     0.675270000000     0.0465223  
H235     H      0.858880000000     0.325850000000     0.687530000000     0.0470891  
H236     H      0.838680000000     0.338570000000     0.790010000000     0.0452067  
H237     H      0.776990000000     0.208730000000     0.697470000000     0.0451732  
H238     H      0.790390000000     0.201680000000     0.789770000000     0.0458034  
H239     H      0.873020000000     0.318610000000     0.781140000000     0.0456914  
H240     H      0.824610000000     0.345720000000     0.696940000000     0.0473514  
H241     H      0.946890000000     0.911780000000     0.813720000000     0.0454695  
H242     H      0.485310000000     0.991430000000     0.793240000000     0.0452443  
H243     H      0.938000000000     0.044400000000     0.774890000000     0.0464014  
H244     H      0.883790000000     0.933540000000     0.804000000000     0.0464894  
H245     H      0.846560000000     0.969300000000     0.748100000000     0.0459314  
H246     H      0.878610000000     0.067620000000     0.769980000000     0.0476062  
H247     H      0.931490000000     0.930860000000     0.852540000000     0.0487723  
H248     H      0.471970000000     0.014990000000     0.830810000000     0.0479959  
H249     H      0.885330000000     0.048630000000     0.727650000000     0.0456183  
H250     H      0.838070000000     0.984830000000     0.791310000000     0.0489018  
H251     H      0.697290000000     0.100500000000     0.830760000000     0.045418   
H252     H      0.735320000000     0.021410000000     0.851200000000     0.0452782  
H253     H      0.687790000000     0.967770000000     0.869030000000     0.0463209  
H254     H      0.634130000000     0.079230000000     0.840580000000     0.0464623  
H255     H      0.596850000000     0.043590000000     0.896480000000     0.0459157  
H256     H      0.628260000000     0.945060000000     0.874100000000     0.0475536  
H257     H      0.681780000000     0.081720000000     0.791890000000     0.048752   
H258     H      0.722020000000     0.998060000000     0.813500000000     0.0480726  
H259     H      0.635260000000     0.963810000000     0.916470000000     0.0455803  
H260     H      0.588130000000     0.028250000000     0.853280000000     0.048852   
H261     H      0.647090000000     0.805250000000     0.450000000000     0.045172   
H262     H      0.634410000000     0.810880000000     0.357470000000     0.0458382  
H263     H      0.590950000000     0.752440000000     0.344380000000     0.0462388  
H264     H      0.608900000000     0.744410000000     0.472570000000     0.0465363  
H265     H      0.600020000000     0.667870000000     0.451750000000     0.0472952  
H266     H      0.552170000000     0.693640000000     0.366680000000     0.0457457  
H267     H      0.611730000000     0.822010000000     0.459320000000     0.0473706  
H268     H      0.598750000000     0.827850000000     0.364450000000     0.0477576  
H269     H      0.586640000000     0.673720000000     0.358480000000     0.045265   
H270     H      0.565610000000     0.687690000000     0.460560000000     0.0470274  
H271     H      0.652750000000     0.010730000000     0.519020000000     0.0454316  
H272     H      0.724330000000     0.986930000000     0.486530000000     0.0452314  
H273     H      0.760510000000     0.991000000000     0.550440000000     0.0462395  
H274     H      0.663150000000     0.023430000000     0.594720000000     0.0462286  
H275     H      0.702380000000     0.069870000000     0.637000000000     0.0460628  
H276     H      0.770910000000     0.003610000000     0.626080000000     0.045447   
H277     H      0.650630000000     0.968040000000     0.540300000000     0.045923   
H278     H      0.721330000000     0.944540000000     0.508210000000     0.0460812  
H279     H      0.773030000000     0.046370000000     0.604930000000     0.0458684  
H280     H      0.699290000000     0.027450000000     0.658600000000     0.0452647  
H281     H      0.896220000000     0.207800000000     0.195880000000     0.0452393  
H282     H      0.883540000000     0.200990000000     0.288380000000     0.045876   
H283     H      0.840230000000     0.259390000000     0.302200000000     0.0462353  
H284     H      0.858150000000     0.269020000000     0.174110000000     0.0465654  
H285     H      0.849460000000     0.345300000000     0.195860000000     0.0473504  
H286     H      0.801590000000     0.318640000000     0.280660000000     0.0457474  
H287     H      0.860830000000     0.191220000000     0.186410000000     0.047334   
H288     H      0.847870000000     0.184180000000     0.281150000000     0.0476645  
H289     H      0.836110000000     0.338320000000     0.289060000000     0.0452711  
H290     H      0.815000000000     0.325720000000     0.186830000000     0.0470959  
H291     H      0.902290000000     0.002430000000     0.125130000000     0.0454488  
H292     H      0.973850000000     0.026980000000     0.157360000000     0.0453559  
H293     H      0.510260000000     0.023440000000     0.094070000000     0.0462092  
H294     H      0.912640000000     0.989520000000     0.049510000000     0.0462357  
H295     H      0.952010000000     0.943170000000     0.007400000000     0.046213   
H296     H      0.520570000000     0.010810000000     0.018340000000     0.045403   
H297     H      0.899920000000     0.045060000000     0.103780000000     0.0458651  
H298     H      0.470970000000     0.069680000000     0.136480000000     0.0460899  
H299     H      0.522850000000     0.968130000000     0.039620000000     0.0459075  
H300     H      0.449010000000     0.986670000000     0.986030000000     0.0452457  
H301     H      0.794650000000     0.067700000000     0.269440000000     0.0475652  
H302     H      0.834900000000     0.984560000000     0.290460000000     0.0489468  
H303     H      0.789000000000     0.933750000000     0.303880000000     0.0464947  
H304     H      0.735200000000     0.045050000000     0.275240000000     0.0463332  
H305     H      0.701330000000     0.015150000000     0.331350000000     0.0479811  
H306     H      0.725930000000     0.912590000000     0.314460000000     0.0454422  
H307     H      0.787480000000     0.048640000000     0.227240000000     0.0455396  
H308     H      0.825940000000     0.969040000000     0.247390000000     0.0459104  
H309     H      0.741680000000     0.931630000000     0.353080000000     0.0487319  
H310     H      0.687770000000     0.991600000000     0.293910000000     0.0452533  
H311     H      0.575990000000     0.043100000000     0.397440000000     0.0459126  
H312     H      0.537930000000     0.962860000000     0.416470000000     0.0455534  
H313     H      0.485740000000     0.966630000000     0.368400000000     0.046306   
H314     H      0.538950000000     0.078790000000     0.341330000000     0.0464592  
H315     H      0.475780000000     0.099550000000     0.330920000000     0.0454516  
H316     H      0.451760000000     0.997030000000     0.312600000000     0.0479896  
H317     H      0.585140000000     0.028170000000     0.354230000000     0.0488902  
H318     H      0.545340000000     0.944450000000     0.374070000000     0.0475722  
H319     H      0.937730000000     0.020160000000     0.349700000000     0.0452817  
H320     H      0.491650000000     0.081170000000     0.292060000000     0.0486556  
In1      In     0.397040000000     0.076200000000     0.235630000000     2.39085    
In2      In     0.146840000000     0.936980000000     0.408770000000     2.39092    
In3      In     0.276270000000     0.076040000000     0.735510000000     2.3904     
In4      In     0.026110000000     0.935680000000     0.908590000000     2.39025    
In5      In     0.391590000000     0.443480000000     0.736980000000     2.39034    
In6      In     0.141570000000     0.568340000000     0.912110000000     2.38994    
In7      In     0.033050000000     0.568800000000     0.411540000000     2.39013    
In8      In     0.283280000000     0.444370000000     0.237190000000     2.39009    
In9      In     0.896580000000     0.075930000000     0.234750000000     2.39088    
In10     In     0.647140000000     0.936740000000     0.409570000000     2.39102    
In11     In     0.776500000000     0.076700000000     0.735970000000     2.39077    
In12     In     0.526270000000     0.936790000000     0.908920000000     2.39085    
In13     In     0.891450000000     0.444400000000     0.736550000000     2.39026    
In14     In     0.641260000000     0.569180000000     0.911490000000     2.39062    
In15     In     0.533490000000     0.568520000000     0.412410000000     2.39037    
In16     In     0.782970000000     0.444250000000     0.236240000000     2.38994    
N1       N      0.099650000000     0.503950000000     0.389320000000    -0.16531    
N2       N      0.217560000000     0.445070000000     0.305730000000    -0.165458   
N3       N      0.467560000000     0.567620000000     0.344160000000    -0.165494   
N4       N      0.349730000000     0.509280000000     0.259950000000    -0.165257   
N5       N      0.178980000000     0.534480000000     0.001190000000    -0.166881   
N6       N      0.245630000000     0.478540000000     0.148360000000    -0.166958   
N7       N      0.429300000000     0.477850000000     0.648260000000    -0.166929   
N8       N      0.995580000000     0.534750000000     0.500540000000    -0.166654   
N9       N      0.325180000000     0.508460000000     0.759710000000    -0.165246   
N10      N      0.207440000000     0.567240000000     0.843780000000    -0.165403   
N11      N      0.957430000000     0.446150000000     0.804680000000    -0.165495   
N12      N      0.075150000000     0.503240000000     0.889740000000    -0.165269   
N13      N      0.104420000000     0.665610000000     0.909190000000    -0.166979   
N14      N      0.046640000000     0.831260000000     0.907040000000    -0.166611   
N15      N      0.354420000000     0.346210000000     0.738770000000    -0.166946   
N16      N      0.296930000000     0.180380000000     0.738590000000    -0.166574   
N17      N      0.350730000000     0.025010000000     0.755030000000    -0.164982   
N18      N      0.468680000000     0.958300000000     0.833210000000    -0.165323   
N19      N      0.100620000000     0.986460000000     0.888730000000    -0.165168   
N20      N      0.218560000000     0.053580000000     0.810810000000    -0.165376   
N21      N      0.069890000000     0.666230000000     0.408790000000    -0.166994   
N22      N      0.126510000000     0.832500000000     0.407100000000    -0.166468   
N23      N      0.241620000000     0.042290000000     0.644580000000    -0.168579   
N24      N      0.181520000000     0.971660000000     0.499340000000    -0.168454   
N25      N      0.320370000000     0.347060000000     0.239080000000    -0.166986   
N26      N      0.376730000000     0.180650000000     0.238740000000    -0.166475   
N27      N      0.991340000000     0.970460000000     0.999070000000    -0.167737   
N28      N      0.431630000000     0.042380000000     0.144690000000    -0.168464   
N29      N      0.204470000000     0.958730000000     0.333170000000    -0.165373   
N30      N      0.322490000000     0.025360000000     0.255090000000    -0.165106   
N31      N      0.954300000000     0.053850000000     0.310140000000    -0.165264   
N32      N      0.072250000000     0.987480000000     0.388650000000    -0.165131   
N33      N      0.599930000000     0.503600000000     0.389670000000    -0.165324   
N34      N      0.717450000000     0.444990000000     0.305070000000    -0.165521   
N35      N      0.967280000000     0.567540000000     0.343060000000    -0.16549    
N36      N      0.849540000000     0.509010000000     0.258830000000    -0.165289   
N37      N      0.678640000000     0.535070000000     0.000510000000    -0.166893   
N38      N      0.745280000000     0.478650000000     0.147510000000    -0.166927   
N39      N      0.928840000000     0.478570000000     0.647550000000    -0.167001   
N40      N      0.496230000000     0.534320000000     0.501470000000    -0.166906   
N41      N      0.824950000000     0.509210000000     0.759360000000    -0.165294   
N42      N      0.707150000000     0.568160000000     0.843210000000    -0.16552    
N43      N      0.457270000000     0.444180000000     0.805570000000    -0.165524   
N44      N      0.574930000000     0.503960000000     0.889070000000    -0.165244   
N45      N      0.604170000000     0.666480000000     0.908790000000    -0.166991   
N46      N      0.546830000000     0.832380000000     0.907110000000    -0.166538   
N47      N      0.854540000000     0.346980000000     0.738710000000    -0.166993   
N48      N      0.797320000000     0.181010000000     0.738920000000    -0.166578   
N49      N      0.850750000000     0.025130000000     0.755300000000    -0.165104   
N50      N      0.968590000000     0.957440000000     0.832870000000    -0.165416   
N51      N      0.600710000000     0.987730000000     0.889110000000    -0.165155   
N52      N      0.718750000000     0.054770000000     0.811380000000    -0.165262   
N53      N      0.570390000000     0.665930000000     0.409680000000    -0.166909   
N54      N      0.626950000000     0.832230000000     0.407940000000    -0.166561   
N55      N      0.741820000000     0.042750000000     0.645130000000    -0.168522   
N56      N      0.681840000000     0.971540000000     0.500090000000    -0.168462   
N57      N      0.819840000000     0.346810000000     0.237970000000    -0.166892   
N58      N      0.876080000000     0.180330000000     0.237640000000    -0.166552   
N59      N      0.491570000000     0.971480000000     0.999480000000    -0.168417   
N60      N      0.931210000000     0.041880000000     0.143920000000    -0.168472   
N61      N      0.704590000000     0.958460000000     0.333760000000    -0.165301   
N62      N      0.822150000000     0.024920000000     0.254540000000    -0.165149   
N63      N      0.454690000000     0.053780000000     0.311010000000    -0.165305   
N64      N      0.572530000000     0.987270000000     0.389640000000    -0.16515    
O1       O      0.414040000000     0.041850000000     0.279910000000    -0.489021   
O2       O      0.436420000000     0.089640000000     0.268250000000    -0.492477   
O3       O      0.393490000000     0.053050000000     0.180660000000    -0.504055   
O4       O      0.371340000000     0.026750000000     0.250130000000    -0.482499   
O5       O      0.383880000000     0.126470000000     0.264530000000    -0.497881   
O6       O      0.348400000000     0.074360000000     0.239120000000    -0.497813   
O7       O      0.434820000000     0.066750000000     0.199060000000    -0.505214   
O8       O      0.391200000000     0.130390000000     0.209950000000    -0.503918   
O9       O      0.163750000000     0.970840000000     0.364080000000    -0.489569   
O10      O      0.186260000000     0.923300000000     0.376300000000    -0.492399   
O11      O      0.143360000000     0.960800000000     0.463470000000    -0.504099   
O12      O      0.121080000000     0.986340000000     0.394120000000    -0.482509   
O13      O      0.133910000000     0.886220000000     0.380530000000    -0.497767   
O14      O      0.098230000000     0.938590000000     0.404790000000    -0.498297   
O15      O      0.184640000000     0.946670000000     0.445230000000    -0.505386   
O16      O      0.140790000000     0.883220000000     0.435250000000    -0.503669   
O17      O      0.282330000000     0.130180000000     0.709810000000    -0.504004   
O18      O      0.289480000000     0.126290000000     0.764420000000    -0.4981     
O19      O      0.279750000000     0.052670000000     0.680610000000    -0.504082   
O20      O      0.324910000000     0.074040000000     0.738910000000    -0.49769    
O21      O      0.236830000000     0.089450000000     0.768060000000    -0.492415   
O22      O      0.301870000000     0.026540000000     0.750110000000    -0.481922   
O23      O      0.238490000000     0.066870000000     0.698860000000    -0.505072   
O24      O      0.259270000000     0.041740000000     0.779810000000    -0.48916    
O25      O      0.032200000000     0.881950000000     0.935110000000    -0.503955   
O26      O      0.039130000000     0.884920000000     0.880410000000    -0.498111   
O27      O      0.988260000000     0.945500000000     0.944950000000    -0.504292   
O28      O      0.051800000000     0.985180000000     0.894200000000    -0.482505   
O29      O      0.986610000000     0.922130000000     0.876230000000    -0.492495   
O30      O      0.074720000000     0.937410000000     0.904590000000    -0.497944   
O31      O      0.029550000000     0.959430000000     0.963320000000    -0.503569   
O32      O      0.009410000000     0.969350000000     0.863650000000    -0.490227   
O33      O      0.368990000000     0.396850000000     0.710950000000    -0.494075   
O34      O      0.377320000000     0.392880000000     0.765170000000    -0.504572   
O35      O      0.405110000000     0.487500000000     0.699270000000    -0.504519   
O36      O      0.345530000000     0.462400000000     0.729460000000    -0.499041   
O37      O      0.410850000000     0.455470000000     0.790140000000    -0.485812   
O38      O      0.371940000000     0.491070000000     0.764760000000    -0.485302   
O39      O      0.415320000000     0.434130000000     0.685990000000    -0.493597   
O40      O      0.437340000000     0.429530000000     0.753000000000    -0.49928    
O41      O      0.119080000000     0.615370000000     0.937640000000    -0.49395    
O42      O      0.127240000000     0.618560000000     0.883340000000    -0.504737   
O43      O      0.155010000000     0.524540000000     0.950090000000    -0.504387   
O44      O      0.095530000000     0.549400000000     0.919820000000    -0.499249   
O45      O      0.160980000000     0.556020000000     0.859100000000    -0.485552   
O46      O      0.121900000000     0.520630000000     0.884560000000    -0.485454   
O47      O      0.165100000000     0.578010000000     0.963190000000    -0.493153   
O48      O      0.187400000000     0.582100000000     0.896240000000    -0.499193   
O49      O      0.987260000000     0.582570000000     0.395500000000    -0.49911    
O50      O      0.013700000000     0.556270000000     0.358550000000    -0.486398   
O51      O      0.019720000000     0.524940000000     0.449530000000    -0.504472   
O52      O      0.079150000000     0.550140000000     0.419250000000    -0.499204   
O53      O      0.055370000000     0.615890000000     0.437160000000    -0.494083   
O54      O      0.052860000000     0.521130000000     0.384080000000    -0.485327   
O55      O      0.009360000000     0.578340000000     0.462530000000    -0.493396   
O56      O      0.047300000000     0.619080000000     0.382830000000    -0.504824   
O57      O      0.263950000000     0.456540000000     0.290280000000    -0.48573    
O58      O      0.237560000000     0.430320000000     0.253220000000    -0.499272   
O59      O      0.269750000000     0.488340000000     0.199390000000    -0.504198   
O60      O      0.329340000000     0.463270000000     0.229650000000    -0.498995   
O61      O      0.297480000000     0.393770000000     0.265430000000    -0.504551   
O62      O      0.302970000000     0.491920000000     0.265010000000    -0.485143   
O63      O      0.259590000000     0.434920000000     0.186200000000    -0.493574   
O64      O      0.305930000000     0.397740000000     0.211240000000    -0.494066   
O65      O      0.913600000000     0.041800000000     0.279170000000    -0.488978   
O66      O      0.936010000000     0.089490000000     0.267220000000    -0.492463   
O67      O      0.893060000000     0.052560000000     0.179860000000    -0.50403    
O68      O      0.870990000000     0.026440000000     0.249420000000    -0.482322   
O69      O      0.883430000000     0.126260000000     0.263550000000    -0.49812    
O70      O      0.847940000000     0.073940000000     0.238330000000    -0.497819   
O71      O      0.934360000000     0.066500000000     0.198190000000    -0.505156   
O72      O      0.890520000000     0.130020000000     0.208920000000    -0.503898   
O73      O      0.663900000000     0.970530000000     0.364740000000    -0.489643   
O74      O      0.686560000000     0.923130000000     0.377090000000    -0.492538   
O75      O      0.643640000000     0.960300000000     0.464390000000    -0.503772   
O76      O      0.621350000000     0.986170000000     0.395170000000    -0.482502   
O77      O      0.634190000000     0.885990000000     0.381380000000    -0.498166   
O78      O      0.598530000000     0.938320000000     0.405540000000    -0.498115   
O79      O      0.684980000000     0.946800000000     0.445880000000    -0.505264   
O80      O      0.641260000000     0.882950000000     0.436050000000    -0.503826   
O81      O      0.782490000000     0.130850000000     0.710250000000    -0.504224   
O82      O      0.789980000000     0.126910000000     0.764780000000    -0.498347   
O83      O      0.779990000000     0.053560000000     0.680990000000    -0.504135   
O84      O      0.825130000000     0.074370000000     0.739320000000    -0.49785    
O85      O      0.737000000000     0.090280000000     0.768320000000    -0.492494   
O86      O      0.801900000000     0.027020000000     0.750500000000    -0.482354   
O87      O      0.738670000000     0.067120000000     0.699500000000    -0.504939   
O88      O      0.759560000000     0.042780000000     0.780590000000    -0.488822   
O89      O      0.532280000000     0.882960000000     0.935290000000    -0.503831   
O90      O      0.539440000000     0.886150000000     0.880640000000    -0.498063   
O91      O      0.488430000000     0.946670000000     0.945290000000    -0.504988   
O92      O      0.551870000000     0.986280000000     0.894290000000    -0.482523   
O93      O      0.486810000000     0.923060000000     0.876560000000    -0.492433   
O94      O      0.574890000000     0.938700000000     0.905190000000    -0.497978   
O95      O      0.529750000000     0.960410000000     0.963710000000    -0.503812   
O96      O      0.509430000000     0.970450000000     0.864060000000    -0.489313   
O97      O      0.868830000000     0.397660000000     0.710770000000    -0.494555   
O98      O      0.877480000000     0.393750000000     0.764910000000    -0.504721   
O99      O      0.904660000000     0.488320000000     0.698550000000    -0.504326   
O100     O      0.845360000000     0.463210000000     0.729070000000    -0.498992   
O101     O      0.910860000000     0.456880000000     0.789510000000    -0.485524   
O102     O      0.871720000000     0.491890000000     0.764400000000    -0.485225   
O103     O      0.915160000000     0.434960000000     0.685560000000    -0.493408   
O104     O      0.937300000000     0.430770000000     0.752420000000    -0.498957   
O105     O      0.618730000000     0.616120000000     0.937120000000    -0.494044   
O106     O      0.626990000000     0.619490000000     0.882850000000    -0.50493    
O107     O      0.654630000000     0.525290000000     0.949410000000    -0.504295   
O108     O      0.595220000000     0.550220000000     0.919110000000    -0.499154   
O109     O      0.660680000000     0.556950000000     0.858480000000    -0.485869   
O110     O      0.621640000000     0.521490000000     0.883870000000    -0.485516   
O111     O      0.664830000000     0.578710000000     0.962580000000    -0.493018   
O112     O      0.687090000000     0.582950000000     0.895670000000    -0.499329   
O113     O      0.487630000000     0.582290000000     0.396650000000    -0.499107   
O114     O      0.514020000000     0.556330000000     0.359400000000    -0.485577   
O115     O      0.520160000000     0.524580000000     0.450300000000    -0.504395   
O116     O      0.579600000000     0.549750000000     0.419830000000    -0.499293   
O117     O      0.555940000000     0.615530000000     0.438030000000    -0.493804   
O118     O      0.553140000000     0.520870000000     0.384760000000    -0.485707   
O119     O      0.510030000000     0.577990000000     0.463570000000    -0.493223   
O120     O      0.547660000000     0.618860000000     0.383760000000    -0.504892   
O121     O      0.763810000000     0.456350000000     0.289440000000    -0.485745   
O122     O      0.737240000000     0.430340000000     0.252420000000    -0.499184   
O123     O      0.769490000000     0.488290000000     0.198500000000    -0.504274   
O124     O      0.829100000000     0.462890000000     0.228750000000    -0.499127   
O125     O      0.797170000000     0.393630000000     0.264420000000    -0.504536   
O126     O      0.802720000000     0.491890000000     0.263830000000    -0.48521    
O127     O      0.759180000000     0.434930000000     0.185280000000    -0.493462   
O128     O      0.805400000000     0.397520000000     0.210170000000    -0.493959   


