data_structure

_audit_creation_method RASPA-1.0
_audit_creation_date 2023-6-5
_audit_author_name 'Poobodin Mano'

_cell_length_a    41.7496
_cell_length_b    40.8956
_cell_length_c    23.9757
_cell_angle_alpha 89.6836
_cell_angle_beta  90.3165
_cell_angle_gamma 89.9995
_cell_volume      40934.3

_symmetry_cell_setting          triclinic
_symmetry_space_group_name_Hall 'P 1'
_symmetry_space_group_name_H-M  'P 1'
_symmetry_Int_Tables_number     1

_symmetry_equiv_pos_as_xyz 'x,y,z'

loop_
_atom_site_label
_atom_site_type_symbol
_atom_site_fract_x
_atom_site_fract_y
_atom_site_fract_z
_atom_site_charge
C1       C      0.326790000000     0.393280000000     0.957600000000     0.405986   
C2       C      0.336580000000     0.310090000000     0.828920000000     0.40405    
C3       C      0.417480000000     0.339180000000     0.922100000000     0.407832   
C4       C      0.326920000000     0.298120000000     0.010890000000     0.406946   
C5       C      0.342800000000     0.626580000000     0.970760000000     0.402622   
C6       C      0.316160000000     0.723130000000     0.056020000000     0.405149   
C7       C      0.411710000000     0.697390000000     0.975850000000     0.403867   
C8       C      0.318770000000     0.725310000000     0.888650000000     0.40179    
C9       C      0.638470000000     0.371440000000     0.020390000000     0.407108   
C10      C      0.724580000000     0.349490000000     0.923910000000     0.402608   
C11      C      0.715990000000     0.443050000000     0.012150000000     0.409844   
C12      C      0.732110000000     0.353080000000     0.109470000000     0.40893    
C13      C      0.672880000000     0.669950000000     0.001660000000     0.409109   
C14      C      0.728710000000     0.759960000000     0.926490000000     0.409735   
C15      C      0.627170000000     0.759200000000     0.979350000000     0.401104   
C16      C      0.714720000000     0.751210000000     0.096930000000     0.398797   
C17      C      0.828740000000     0.135300000000     0.514780000000     0.407915   
C18      C      0.817410000000     0.228230000000     0.612420000000     0.401471   
C19      C      0.904980000000     0.207900000000     0.526370000000     0.408886   
C20      C      0.812970000000     0.227390000000     0.427510000000     0.405949   
C21      C      0.913480000000     0.816770000000     0.534480000000     0.400875   
C22      C      0.811770000000     0.820270000000     0.576550000000     0.409785   
C23      C      0.874650000000     0.910450000000     0.519670000000     0.409683   
C24      C      0.832560000000     0.840520000000     0.407110000000     0.400553   
C25      C      0.131400000000     0.854630000000     0.480010000000     0.404031   
C26      C      0.224930000000     0.825380000000     0.386140000000     0.40338    
C27      C      0.200210000000     0.922900000000     0.457310000000     0.403121   
C28      C      0.224890000000     0.826300000000     0.555310000000     0.403128   
C29      C      0.128070000000     0.206610000000     0.430910000000     0.405871   
C30      C      0.203720000000     0.239000000000     0.533290000000     0.406166   
C31      C      0.220350000000     0.152950000000     0.412440000000     0.407574   
C32      C      0.220550000000     0.246720000000     0.350490000000     0.40643    
C33      C      0.223550000000     0.009270000000     0.482450000000     0.0126512  
C34      C      0.252390000000     0.058690000000     0.507770000000    -0.0421212  
C35      C      0.255390000000     0.107560000000     0.443840000000    -0.0225943  
C36      C      0.244180000000     0.073280000000     0.456690000000     0.0144125  
C37      C      0.226680000000     0.104610000000     0.351840000000    -0.0221687  
C38      C      0.216660000000     0.070140000000     0.366230000000     0.0143413  
C39      C      0.241930000000     0.027210000000     0.520700000000    -0.0417304  
C40      C      0.225570000000     0.055670000000     0.417680000000    -0.00609635 
C41      C      0.198370000000     0.052260000000     0.327960000000    -0.0423185  
C42      C      0.188590000000     0.020520000000     0.340520000000    -0.0416771  
C43      C      0.185430000000     0.971540000000     0.403110000000    -0.0210862  
C44      C      0.196920000000     0.005810000000     0.391550000000     0.0118562  
C45      C      0.211000000000     0.976230000000     0.499780000000    -0.0219194  
C46      C      0.215320000000     0.023370000000     0.430620000000    -0.00455248 
C47      C      0.989850000000     0.798030000000     0.487550000000     0.0136846  
C48      C      0.031990000000     0.806360000000     0.419740000000    -0.0421571  
C49      C      0.078860000000     0.843290000000     0.437480000000    -0.021953   
C50      C      0.048460000000     0.826990000000     0.456610000000     0.0132048  
C51      C      0.083360000000     0.869510000000     0.532950000000    -0.0217084  
C52      C      0.052100000000     0.853350000000     0.547910000000     0.0128172  
C53      C      0.003180000000     0.791780000000     0.435230000000    -0.0412405  
C54      C      0.035810000000     0.832960000000     0.509970000000    -0.00525677 
C55      C      0.038820000000     0.859370000000     0.600460000000    -0.0424049  
C56      C      0.009680000000     0.845390000000     0.615650000000    -0.0413894  
C57      C      0.961220000000     0.810780000000     0.595340000000    -0.0227445  
C58      C      0.993080000000     0.825130000000     0.578540000000     0.0128312  
C59      C      0.958600000000     0.782170000000     0.503680000000    -0.0235316  
C60      C      0.006240000000     0.818470000000     0.525560000000    -0.00584623 
C61      C      0.832500000000     0.052040000000     0.565530000000     0.013983   
C62      C      0.852100000000     0.006150000000     0.620580000000    -0.0418293  
C63      C      0.882420000000     0.959510000000     0.578080000000    -0.0221076  
C64      C      0.865040000000     0.991720000000     0.572860000000     0.0134272  
C65      C      0.893040000000     0.961720000000     0.475100000000    -0.0221634  
C66      C      0.874800000000     0.993520000000     0.472060000000     0.0132617  
C67      C      0.835890000000     0.035870000000     0.616920000000    -0.0422819  
C68      C      0.861800000000     0.007580000000     0.520630000000    -0.00548835 
C69      C      0.871020000000     0.009450000000     0.420560000000    -0.0419748  
C70      C      0.854320000000     0.038900000000     0.416770000000    -0.0421885  
C71      C      0.823100000000     0.084990000000     0.459050000000    -0.022271   
C72      C      0.841370000000     0.053320000000     0.464510000000     0.0137287  
C73      C      0.814150000000     0.083780000000     0.562780000000    -0.0226903  
C74      C      0.845090000000     0.037760000000     0.516860000000    -0.0055629  
C75      C      0.988740000000     0.182950000000     0.523570000000     0.0123183  
C76      C      0.035380000000     0.150560000000     0.499770000000    -0.0424997  
C77      C      0.079800000000     0.172400000000     0.440160000000    -0.0223205  
C78      C      0.048320000000     0.176840000000     0.469660000000     0.0128603  
C79      C      0.075830000000     0.231170000000     0.407220000000    -0.0222249  
C80      C      0.044140000000     0.233500000000     0.436800000000     0.0124688  
C81      C      0.006100000000     0.153670000000     0.526840000000    -0.0413505  
C82      C      0.031420000000     0.206660000000     0.466500000000    -0.00573964 
C83      C      0.026850000000     0.262840000000     0.433840000000    -0.0419467  
C84      C      0.997360000000     0.265810000000     0.460240000000    -0.0423818  
C85      C      0.952340000000     0.243620000000     0.518080000000    -0.0214917  
C86      C      0.984310000000     0.239450000000     0.489970000000     0.0122936  
C87      C      0.957650000000     0.185860000000     0.554820000000    -0.0224473  
C88      C      0.001370000000     0.209730000000     0.493590000000    -0.00476746 
C89      C      0.778020000000     0.757650000000     0.803260000000     0.0139191  
C90      C      0.795870000000     0.738570000000     0.712860000000    -0.0418892  
C91      C      0.789230000000     0.772130000000     0.625380000000    -0.0223492  
C92      C      0.785260000000     0.767580000000     0.687480000000     0.0131619  
C93      C      0.763110000000     0.827250000000     0.633560000000    -0.0223461  
C94      C      0.760000000000     0.821500000000     0.695480000000     0.0136702  
C95      C      0.792480000000     0.733750000000     0.770120000000    -0.0422736  
C96      C      0.770810000000     0.792060000000     0.720220000000    -0.00552911 
C97      C      0.745850000000     0.845540000000     0.728690000000    -0.0419088  
C98      C      0.742570000000     0.840760000000     0.785970000000    -0.0419791  
C99      C      0.749420000000     0.807370000000     0.873510000000    -0.0221438  
C100     C      0.753090000000     0.811700000000     0.811340000000     0.0134169  
C101     C      0.775540000000     0.752120000000     0.865330000000    -0.0228341  
C102     C      0.767340000000     0.787140000000     0.778570000000    -0.00554744 
C103     C      0.817190000000     0.801050000000     0.274020000000     0.0136883  
C104     C      0.811050000000     0.756560000000     0.208260000000    -0.0419569  
C105     C      0.758170000000     0.742150000000     0.164900000000    -0.021755   
C106     C      0.778340000000     0.763500000000     0.202170000000     0.0121736  
C107     C      0.710380000000     0.777860000000     0.188170000000    -0.0223675  
C108     C      0.732040000000     0.797270000000     0.226010000000     0.0123997  
C109     C      0.830310000000     0.775320000000     0.243300000000    -0.0426124  
C110     C      0.764800000000     0.789640000000     0.231980000000    -0.00520898 
C111     C      0.718980000000     0.823160000000     0.256500000000    -0.0421961  
C112     C      0.738090000000     0.841520000000     0.292380000000    -0.0424272  
C113     C      0.790630000000     0.854740000000     0.338240000000    -0.0225528  
C114     C      0.770710000000     0.834360000000     0.298900000000     0.0127619  
C115     C      0.838830000000     0.821480000000     0.310300000000    -0.0235369  
C116     C      0.784350000000     0.808510000000     0.268350000000    -0.00610328 
C117     C      0.779540000000     0.325970000000     0.809690000000     0.0127735  
C118     C      0.826530000000     0.310850000000     0.756570000000    -0.0420912  
C119     C      0.828030000000     0.261860000000     0.694700000000    -0.021571   
C120     C      0.810290000000     0.284030000000     0.733810000000     0.0122355  
C121     C      0.776990000000     0.227900000000     0.686260000000    -0.0212146  
C122     C      0.761500000000     0.251260000000     0.726390000000     0.0121176  
C123     C      0.811270000000     0.331720000000     0.793610000000    -0.0423886  
C124     C      0.778290000000     0.278000000000     0.748960000000    -0.00508465 
C125     C      0.729710000000     0.245630000000     0.742280000000    -0.0420473  
C126     C      0.714550000000     0.266300000000     0.779830000000    -0.0423685  
C127     C      0.713300000000     0.314800000000     0.843020000000    -0.0217977  
C128     C      0.730830000000     0.293030000000     0.802810000000     0.0123632  
C129     C      0.763620000000     0.350020000000     0.847940000000    -0.0218039  
C130     C      0.762780000000     0.299150000000     0.787330000000    -0.00544261 
C131     C      0.742810000000     0.323400000000     0.254370000000     0.0125396  
C132     C      0.732730000000     0.298930000000     0.345090000000    -0.0421816  
C133     C      0.765760000000     0.252950000000     0.384010000000    -0.021741   
C134     C      0.758700000000     0.277600000000     0.338590000000     0.0121758  
C135     C      0.812460000000     0.232850000000     0.325570000000    -0.0215715  
C136     C      0.803340000000     0.258030000000     0.282200000000     0.0122594  
C137     C      0.725070000000     0.321720000000     0.303750000000    -0.0422962  
C138     C      0.777070000000     0.279140000000     0.289520000000    -0.00526614 
C139     C      0.821210000000     0.259860000000     0.232970000000    -0.042113   
C140     C      0.813380000000     0.282460000000     0.191430000000    -0.0422662  
C141     C      0.779860000000     0.327860000000     0.151850000000    -0.0218137  
C142     C      0.787310000000     0.303660000000     0.197810000000     0.0122013  
C143     C      0.734480000000     0.349280000000     0.211730000000    -0.0219736  
C144     C      0.769050000000     0.302240000000     0.247030000000    -0.00545769 
C145     C      0.710810000000     0.526750000000     0.057660000000     0.0139074  
C146     C      0.687820000000     0.572950000000     0.106400000000    -0.0418885  
C147     C      0.661410000000     0.619780000000     0.055770000000    -0.0221272  
C148     C      0.678990000000     0.587580000000     0.055600000000     0.0132887  
C149     C      0.661110000000     0.618940000000     0.950760000000    -0.0223027  
C150     C      0.677890000000     0.586300000000     0.953360000000     0.0133701  
C151     C      0.703820000000     0.543050000000     0.107400000000    -0.0423177  
C152     C      0.686210000000     0.571780000000     0.005010000000    -0.00537027 
C153     C      0.685030000000     0.570080000000     0.903630000000    -0.0419969  
C154     C      0.700490000000     0.539890000000     0.904670000000    -0.0419935  
C155     C      0.725830000000     0.492470000000     0.955110000000    -0.0216369  
C156     C      0.709050000000     0.525120000000     0.955470000000     0.013519   
C157     C      0.728930000000     0.494860000000     0.059900000000    -0.0226057  
C158     C      0.702170000000     0.541110000000     0.006060000000    -0.005385   
C159     C      0.306110000000     0.783850000000     0.771650000000     0.0129891  
C160     C      0.312850000000     0.817600000000     0.688970000000    -0.0420087  
C161     C      0.274220000000     0.816960000000     0.608870000000    -0.021436   
C162     C      0.284540000000     0.805090000000     0.665790000000     0.0123013  
C163     C      0.226870000000     0.777790000000     0.615480000000    -0.0214564  
C164     C      0.238400000000     0.768490000000     0.672950000000     0.0126494  
C165     C      0.323410000000     0.807230000000     0.741320000000    -0.0423237  
C166     C      0.266740000000     0.781630000000     0.695670000000    -0.00508474 
C167     C      0.220880000000     0.745400000000     0.703550000000    -0.042011   
C168     C      0.231100000000     0.735520000000     0.756350000000    -0.0421288  
C169     C      0.269260000000     0.737040000000     0.837070000000    -0.0215977  
C170     C      0.259390000000     0.748070000000     0.779510000000     0.012826   
C171     C      0.318020000000     0.774110000000     0.828770000000    -0.0222885  
C172     C      0.277450000000     0.771160000000     0.749300000000    -0.00543092 
C173     C      0.260560000000     0.739120000000     0.173100000000     0.0128472  
C174     C      0.228300000000     0.734180000000     0.256640000000    -0.0420408  
C175     C      0.231590000000     0.774050000000     0.335230000000    -0.0216617  
C176     C      0.242090000000     0.762620000000     0.278570000000     0.0124452  
C177     C      0.272130000000     0.820320000000     0.326540000000    -0.0214445  
C178     C      0.279920000000     0.807960000000     0.269210000000     0.0127084  
C179     C      0.237330000000     0.722660000000     0.204490000000    -0.0422679  
C180     C      0.265460000000     0.779560000000     0.247670000000    -0.00512828 
C181     C      0.302850000000     0.824670000000     0.237540000000    -0.0419665  
C182     C      0.311290000000     0.813610000000     0.184840000000    -0.0421273  
C183     C      0.306840000000     0.774490000000     0.105370000000    -0.0216338  
C184     C      0.297430000000     0.785220000000     0.162900000000     0.0129371  
C185     C      0.268910000000     0.726180000000     0.116260000000    -0.022092   
C186     C      0.274500000000     0.767920000000     0.194200000000    -0.00538812 
C187     C      0.493440000000     0.712790000000     0.925660000000     0.0130902  
C188     C      0.538060000000     0.733830000000     0.871560000000    -0.0422504  
C189     C      0.581640000000     0.768180000000     0.914410000000    -0.0230261  
C190     C      0.550680000000     0.749250000000     0.918830000000     0.0134511  
C191     C      0.576760000000     0.782510000000     0.015290000000    -0.0233995  
C192     C      0.546620000000     0.762300000000     0.018380000000     0.014133   
C193     C      0.509830000000     0.715750000000     0.874980000000    -0.042227   
C194     C      0.534420000000     0.746710000000     0.970270000000    -0.00668458 
C195     C      0.530570000000     0.758990000000     0.069220000000    -0.0422805  
C196     C      0.502900000000     0.740070000000     0.072880000000    -0.041949   
C197     C      0.461030000000     0.703360000000     0.031530000000    -0.0220073  
C198     C      0.490360000000     0.724480000000     0.025610000000     0.0132362  
C199     C      0.463530000000     0.692140000000     0.927900000000    -0.0226828  
C200     C      0.505900000000     0.727920000000     0.973860000000    -0.00528975 
C201     C      0.293730000000     0.255530000000     0.736620000000     0.0140451  
C202     C      0.251760000000     0.217980000000     0.708030000000    -0.0418544  
C203     C      0.210610000000     0.232850000000     0.635280000000    -0.0225506  
C204     C      0.239780000000     0.241060000000     0.669850000000     0.0139435  
C205     C      0.214620000000     0.288230000000     0.589740000000    -0.022392   
C206     C      0.243380000000     0.295270000000     0.626100000000     0.013614   
C207     C      0.278580000000     0.225030000000     0.740670000000    -0.0421994  
C208     C      0.254910000000     0.271800000000     0.664700000000    -0.00548314 
C209     C      0.258660000000     0.325680000000     0.621800000000    -0.0419519  
C210     C      0.285270000000     0.332850000000     0.654910000000    -0.0421158  
C211     C      0.326080000000     0.318380000000     0.728330000000    -0.0228569  
C212     C      0.297120000000     0.309870000000     0.693380000000     0.013784   
C213     C      0.323310000000     0.262040000000     0.771160000000    -0.0230409  
C214     C      0.282090000000     0.279080000000     0.698330000000    -0.00561407 
C215     C      0.284290000000     0.271960000000     0.256590000000     0.0129889  
C216     C      0.333370000000     0.268280000000     0.203090000000    -0.042036   
C217     C      0.333520000000     0.266600000000     0.098380000000    -0.0220982  
C218     C      0.315890000000     0.268720000000     0.153020000000     0.0130654  
C219     C      0.280190000000     0.268570000000     0.048630000000    -0.0218446  
C220     C      0.264100000000     0.271200000000     0.104550000000     0.0129448  
C221     C      0.317780000000     0.270070000000     0.254230000000    -0.0423526  
C222     C      0.282160000000     0.270810000000     0.154480000000    -0.00545    
C223     C      0.230650000000     0.273490000000     0.106860000000    -0.0421087  
C224     C      0.215090000000     0.275640000000     0.157970000000    -0.0422242  
C225     C      0.215020000000     0.277870000000     0.262560000000    -0.0223114  
C226     C      0.232580000000     0.275140000000     0.208020000000     0.0132106  
C227     C      0.268250000000     0.274680000000     0.312600000000    -0.0225362  
C228     C      0.266270000000     0.272710000000     0.206620000000    -0.00565673 
C229     C      0.496050000000     0.377650000000     0.931940000000     0.0137801  
C230     C      0.537100000000     0.415480000000     0.963190000000    -0.0420377  
C231     C      0.585210000000     0.397300000000     0.018210000000    -0.0222278  
C232     C      0.554510000000     0.389770000000     0.987570000000     0.013089   
C233     C      0.591260000000     0.336820000000     0.038480000000    -0.0217377  
C234     C      0.560010000000     0.331290000000     0.008030000000     0.0129721  
C235     C      0.508370000000     0.409450000000     0.935260000000    -0.0423429  
C236     C      0.542730000000     0.357530000000     0.984080000000    -0.00527482 
C237     C      0.547770000000     0.299460000000     0.004320000000    -0.0419395  
C238     C      0.518850000000     0.293480000000     0.976930000000    -0.0422656  
C239     C      0.470130000000     0.311770000000     0.923400000000    -0.0223596  
C240     C      0.501310000000     0.319200000000     0.952870000000     0.0131674  
C241     C      0.465450000000     0.371870000000     0.899890000000    -0.022958   
C242     C      0.513250000000     0.351420000000     0.956040000000    -0.00569674 
C243     C      0.327910000000     0.472420000000     0.022880000000     0.0146695  
C244     C      0.351780000000     0.520380000000     0.065210000000    -0.0415418  
C245     C      0.355050000000     0.574490000000     0.016650000000    -0.0209603  
C246     C      0.345190000000     0.539050000000     0.017270000000     0.0115233  
C247     C      0.335260000000     0.577000000000     0.915430000000    -0.0211896  
C248     C      0.323550000000     0.542410000000     0.922430000000     0.0121325  
C249     C      0.343220000000     0.487500000000     0.068030000000    -0.0427037  
C250     C      0.329740000000     0.524380000000     0.971460000000    -0.00437022 
C251     C      0.307500000000     0.527490000000     0.877770000000    -0.0414967  
C252     C      0.297660000000     0.494990000000     0.881370000000    -0.042437   
C253     C      0.293590000000     0.441200000000     0.932120000000    -0.0228256  
C254     C      0.304240000000     0.476410000000     0.929310000000     0.0145193  
C255     C      0.318660000000     0.436840000000     0.027390000000    -0.0230837  
C256     C      0.320450000000     0.490960000000     0.974660000000    -0.00642522 
H1       H      0.208220000000     0.116670000000     0.325160000000     0.0527002  
H2       H      0.190010000000     0.979980000000     0.527320000000     0.0426393  
H3       H      0.279660000000     0.105690000000     0.425320000000     0.0399628  
H4       H      0.188770000000     0.956440000000     0.365080000000     0.052088   
H5       H      0.248090000000     0.016810000000     0.561020000000     0.0396667  
H6       H      0.266680000000     0.071890000000     0.538050000000     0.0400179  
H7       H      0.257860000000     0.121970000000     0.482850000000     0.0538772  
H8       H      0.229680000000     0.963290000000     0.524820000000     0.0529915  
H9       H      0.191530000000     0.062980000000     0.288220000000     0.0396611  
H10      H      0.248860000000     0.103010000000     0.326580000000     0.0394409  
H11      H      0.174320000000     0.007300000000     0.310210000000     0.0390939  
H12      H      0.159150000000     0.972440000000     0.410270000000     0.0409239  
H13      H      0.099420000000     0.869760000000     0.570150000000     0.0527967  
H14      H      0.964200000000     0.757970000000     0.522690000000     0.0401318  
H15      H      0.072080000000     0.865060000000     0.412120000000     0.0413491  
H16      H      0.948300000000     0.827540000000     0.623860000000     0.0525431  
H17      H      0.991030000000     0.775870000000     0.405980000000     0.0399408  
H18      H      0.041440000000     0.801610000000     0.378580000000     0.0399632  
H19      H      0.092180000000     0.826640000000     0.409280000000     0.0536752  
H20      H      0.943420000000     0.777960000000     0.466120000000     0.0550583  
H21      H      0.051040000000     0.875150000000     0.629850000000     0.0393424  
H22      H      0.078300000000     0.895520000000     0.522510000000     0.0398984  
H23      H      0.999940000000     0.850570000000     0.656440000000     0.0392431  
H24      H      0.966180000000     0.787920000000     0.619140000000     0.0396059  
H25      H      0.918860000000     0.967820000000     0.479710000000     0.0396116  
H26      H      0.818470000000     0.098030000000     0.601490000000     0.0535017  
H27      H      0.871700000000     0.944340000000     0.611820000000     0.0536922  
H28      H      0.798030000000     0.078830000000     0.447310000000     0.0394044  
H29      H      0.825940000000     0.046350000000     0.654430000000     0.0394574  
H30      H      0.854490000000     0.994270000000     0.660890000000     0.0396176  
H31      H      0.907470000000     0.964890000000     0.590980000000     0.0398796  
H32      H      0.788200000000     0.077820000000     0.560800000000     0.0399146  
H33      H      0.880970000000     0.998980000000     0.383040000000     0.0393065  
H34      H      0.890360000000     0.947980000000     0.435430000000     0.0516914  
H35      H      0.851520000000     0.050530000000     0.376330000000     0.0394672  
H36      H      0.833020000000     0.100050000000     0.424440000000     0.052495   
H37      H      0.088620000000     0.255000000000     0.409790000000     0.0526194  
H38      H      0.963380000000     0.192130000000     0.598800000000     0.040714   
H39      H      0.074780000000     0.160150000000     0.399780000000     0.0416139  
H40      H      0.936540000000     0.259520000000     0.492050000000     0.0530768  
H41      H      0.996880000000     0.133060000000     0.550350000000     0.0391327  
H42      H      0.048070000000     0.127490000000     0.502450000000     0.0395845  
H43      H      0.095490000000     0.155570000000     0.464630000000     0.0523132  
H44      H      0.945130000000     0.161850000000     0.554950000000     0.05272    
H45      H      0.036260000000     0.283590000000     0.410910000000     0.0393185  
H46      H      0.070800000000     0.226900000000     0.362280000000     0.0416376  
H47      H      0.984600000000     0.288830000000     0.457370000000     0.0393994  
H48      H      0.956520000000     0.256840000000     0.557840000000     0.0411411  
H49      H      0.766280000000     0.853750000000     0.624530000000     0.0535768  
H50      H      0.798780000000     0.759220000000     0.884570000000     0.0404822  
H51      H      0.768520000000     0.760110000000     0.604590000000     0.0397985  
H52      H      0.727370000000     0.819940000000     0.887980000000     0.0520702  
H53      H      0.801170000000     0.711220000000     0.788710000000     0.0397897  
H54      H      0.806940000000     0.719580000000     0.688220000000     0.0393714  
H55      H      0.811180000000     0.759400000000     0.610880000000     0.0515461  
H56      H      0.771660000000     0.725690000000     0.874130000000     0.0538901  
H57      H      0.737340000000     0.868170000000     0.710160000000     0.0397845  
H58      H      0.740130000000     0.819780000000     0.613770000000     0.0401522  
H59      H      0.731730000000     0.859850000000     0.810680000000     0.0394518  
H60      H      0.770020000000     0.819770000000     0.893950000000     0.039942   
H61      H      0.692890000000     0.794580000000     0.167470000000     0.0541871  
H62      H      0.850200000000     0.840400000000     0.283490000000     0.0416975  
H63      H      0.751920000000     0.719690000000     0.188780000000     0.0424778  
H64      H      0.776110000000     0.861680000000     0.375120000000     0.0523482  
H65      H      0.855590000000     0.769610000000     0.246680000000     0.039749   
H66      H      0.821760000000     0.736500000000     0.185670000000     0.0392275  
H67      H      0.772550000000     0.734070000000     0.128510000000     0.0517773  
H68      H      0.858240000000     0.805900000000     0.328090000000     0.0551119  
H69      H      0.693790000000     0.829160000000     0.252530000000     0.0394181  
H70      H      0.696100000000     0.760930000000     0.214580000000     0.0423213  
H71      H      0.727340000000     0.861420000000     0.315320000000     0.0392505  
H72      H      0.796850000000     0.877860000000     0.316290000000     0.0411605  
H73      H      0.759370000000     0.220990000000     0.653340000000     0.0524124  
H74      H      0.756680000000     0.371910000000     0.822980000000     0.0426465  
H75      H      0.844180000000     0.246010000000     0.720090000000     0.0411778  
H76      H      0.698590000000     0.299460000000     0.871590000000     0.0517851  
H77      H      0.824320000000     0.352510000000     0.809900000000     0.039217   
H78      H      0.851200000000     0.315730000000     0.745420000000     0.0389859  
H79      H      0.843880000000     0.276770000000     0.667360000000     0.0517166  
H80      H      0.781260000000     0.358150000000     0.879990000000     0.0531072  
H81      H      0.716540000000     0.225040000000     0.725510000000     0.0391419  
H82      H      0.782750000000     0.204980000000     0.709350000000     0.0426739  
H83      H      0.689920000000     0.261370000000     0.791120000000     0.0392879  
H84      H      0.696060000000     0.330010000000     0.818720000000     0.0418197  
H85      H      0.839030000000     0.231010000000     0.328190000000     0.0528392  
H86      H      0.744770000000     0.372890000000     0.225960000000     0.0422895  
H87      H      0.748290000000     0.232590000000     0.379870000000     0.0411872  
H88      H      0.783590000000     0.316100000000     0.110630000000     0.0512093  
H89      H      0.705100000000     0.338160000000     0.310300000000     0.0392007  
H90      H      0.718330000000     0.297980000000     0.382530000000     0.0392033  
H91      H      0.761350000000     0.264150000000     0.425480000000     0.0509762  
H92      H      0.707990000000     0.352230000000     0.209860000000     0.052323   
H93      H      0.841380000000     0.243640000000     0.226650000000     0.0393647  
H94      H      0.803830000000     0.208640000000     0.310940000000     0.0421919  
H95      H      0.827740000000     0.283390000000     0.153950000000     0.0392484  
H96      H      0.797590000000     0.348070000000     0.154520000000     0.0412652  
H97      H      0.635070000000     0.614140000000     0.945480000000     0.0396693  
H98      H      0.722460000000     0.481080000000     0.098360000000     0.0525752  
H99      H      0.668800000000     0.634540000000     0.092500000000     0.0519762  
H100     H      0.751650000000     0.497110000000     0.947240000000     0.0396828  
H101     H      0.710690000000     0.532490000000     0.147240000000     0.0394627  
H102     H      0.682390000000     0.584820000000     0.145520000000     0.0393086  
H103     H      0.635480000000     0.614370000000     0.060660000000     0.0395864  
H104     H      0.754920000000     0.500610000000     0.062180000000     0.039905   
H105     H      0.678610000000     0.580890000000     0.863740000000     0.0395346  
H106     H      0.668900000000     0.632880000000     0.913230000000     0.0533022  
H107     H      0.705790000000     0.527950000000     0.865560000000     0.0393434  
H108     H      0.716890000000     0.477430000000     0.919770000000     0.0531724  
H109     H      0.200210000000     0.778630000000     0.614890000000     0.052673   
H110     H      0.312260000000     0.794120000000     0.858260000000     0.0413727  
H111     H      0.290060000000     0.805460000000     0.577420000000     0.0406172  
H112     H      0.263500000000     0.710630000000     0.842470000000     0.0528621  
H113     H      0.345270000000     0.817530000000     0.758330000000     0.0395767  
H114     H      0.326830000000     0.835580000000     0.666380000000     0.0393557  
H115     H      0.278440000000     0.843780000000     0.605570000000     0.0525173  
H116     H      0.344570000000     0.771680000000     0.827720000000     0.0534821  
H117     H      0.199110000000     0.734970000000     0.686430000000     0.0395442  
H118     H      0.233860000000     0.757970000000     0.586440000000     0.0410952  
H119     H      0.216890000000     0.717860000000     0.779250000000     0.0394569  
H120     H      0.254340000000     0.750400000000     0.867710000000     0.040661   
H121     H      0.272860000000     0.847540000000     0.326590000000     0.0523034  
H122     H      0.249190000000     0.732670000000     0.086900000000     0.041251   
H123     H      0.242560000000     0.757630000000     0.367130000000     0.0404779  
H124     H      0.332760000000     0.779530000000     0.098810000000     0.0532241  
H125     H      0.226090000000     0.700720000000     0.188480000000     0.0395065  
H126     H      0.210370000000     0.720840000000     0.280050000000     0.0394127  
H127     H      0.205210000000     0.770910000000     0.339100000000     0.0530257  
H128     H      0.270290000000     0.699010000000     0.118290000000     0.0525785  
H129     H      0.314280000000     0.846470000000     0.253720000000     0.0394925  
H130     H      0.291400000000     0.812010000000     0.355480000000     0.0409428  
H131     H      0.328850000000     0.827240000000     0.161060000000     0.0395211  
H132     H      0.293620000000     0.789950000000     0.074690000000     0.0405239  
H133     H      0.589430000000     0.782750000000     0.056220000000     0.0543772  
H134     H      0.470840000000     0.666020000000     0.929200000000     0.0397186  
H135     H      0.575580000000     0.793200000000     0.899430000000     0.0400871  
H136     H      0.445050000000     0.713560000000     0.064110000000     0.0538145  
H137     H      0.500740000000     0.703870000000     0.837840000000     0.039411   
H138     H      0.550230000000     0.735650000000     0.831870000000     0.0396838  
H139     H      0.597590000000     0.757080000000     0.882680000000     0.0528707  
H140     H      0.449300000000     0.696070000000     0.889050000000     0.0535466  
H141     H      0.539660000000     0.770870000000     0.106350000000     0.0401166  
H142     H      0.569500000000     0.808100000000     0.005840000000     0.0403528  
H143     H      0.491240000000     0.737500000000     0.112920000000     0.0397674  
H144     H      0.468960000000     0.678950000000     0.046800000000     0.0403806  
H145     H      0.216990000000     0.300860000000     0.548750000000     0.0525793  
H146     H      0.344200000000     0.251780000000     0.748670000000     0.0398331  
H147     H      0.189170000000     0.238720000000     0.660610000000     0.0397159  
H148     H      0.325800000000     0.344850000000     0.738740000000     0.0537845  
H149     H      0.287540000000     0.206590000000     0.769360000000     0.039559   
H150     H      0.240350000000     0.194320000000     0.712430000000     0.0397708  
H151     H      0.209750000000     0.206150000000     0.626710000000     0.0536843  
H152     H      0.321480000000     0.249080000000     0.811940000000     0.053243   
H153     H      0.249970000000     0.343960000000     0.592550000000     0.039453   
H154     H      0.193320000000     0.298890000000     0.610480000000     0.0395672  
H155     H      0.296680000000     0.356510000000     0.650500000000     0.0395883  
H156     H      0.347660000000     0.314210000000     0.702400000000     0.0394097  
H157     H      0.266290000000     0.282330000000     0.016480000000     0.0526168  
H158     H      0.269490000000     0.300650000000     0.325850000000     0.0413731  
H159     H      0.338790000000     0.240380000000     0.090680000000     0.0409099  
H160     H      0.191200000000     0.265810000000     0.259290000000     0.0536297  
H161     H      0.331930000000     0.269930000000     0.292240000000     0.0393902  
H162     H      0.359270000000     0.266600000000     0.202570000000     0.039579   
H163     H      0.357010000000     0.279310000000     0.101670000000     0.0535572  
H164     H      0.281610000000     0.259780000000     0.343970000000     0.0525648  
H165     H      0.216490000000     0.273670000000     0.068850000000     0.0393852  
H166     H      0.279620000000     0.242430000000     0.036270000000     0.0409959  
H167     H      0.189220000000     0.277660000000     0.158470000000     0.0395257  
H168     H      0.210440000000     0.304240000000     0.270070000000     0.0410207  
H169     H      0.607720000000     0.315890000000     0.031150000000     0.0530624  
H170     H      0.471500000000     0.370100000000     0.854920000000     0.0398965  
H171     H      0.578800000000     0.405460000000     0.060860000000     0.0406608  
H172     H      0.457460000000     0.291580000000     0.945410000000     0.0527405  
H173     H      0.495620000000     0.429760000000     0.916270000000     0.0396745  
H174     H      0.545840000000     0.440370000000     0.965680000000     0.0395371  
H175     H      0.597590000000     0.418230000000     0.997780000000     0.0528232  
H176     H      0.449180000000     0.393190000000     0.904950000000     0.0530702  
H177     H      0.560700000000     0.279100000000     0.022780000000     0.0394135  
H178     H      0.586140000000     0.336980000000     0.083920000000     0.0409487  
H179     H      0.510050000000     0.268600000000     0.974550000000     0.0393595  
H180     H      0.475950000000     0.302600000000     0.881110000000     0.0395128  
H181     H      0.317550000000     0.591300000000     0.890390000000     0.0520431  
H182     H      0.295770000000     0.435360000000     0.050720000000     0.0399866  
H183     H      0.381650000000     0.575660000000     0.015910000000     0.0409296  
H184     H      0.293280000000     0.430270000000     0.889730000000     0.0541448  
H185     H      0.348630000000     0.473710000000     0.105630000000     0.0398053  
H186     H      0.363700000000     0.531380000000     0.100720000000     0.0390721  
H187     H      0.347850000000     0.585950000000     0.056690000000     0.0518845  
H188     H      0.337120000000     0.423260000000     0.051820000000     0.0536075  
H189     H      0.302700000000     0.541060000000     0.839690000000     0.0395537  
H190     H      0.357570000000     0.576350000000     0.890360000000     0.042502   
H191     H      0.285160000000     0.484190000000     0.846310000000     0.0401003  
H192     H      0.268520000000     0.440930000000     0.947470000000     0.0403764  
In1      In     0.352800000000     0.335200000000     0.929400000000     2.40443    
In2      In     0.347330000000     0.692430000000     0.973040000000     2.41932    
In3      In     0.702870000000     0.378380000000     0.017570000000     2.39459    
In4      In     0.686210000000     0.734790000000     0.999800000000     2.40479    
In5      In     0.840760000000     0.200250000000     0.519210000000     2.39446    
In6      In     0.857470000000     0.846900000000     0.510680000000     2.40219    
In7      In     0.195570000000     0.857490000000     0.469640000000     2.42069    
In8      In     0.192790000000     0.211450000000     0.432540000000     2.40538    
N1       N      0.200950000000     0.956190000000     0.451960000000    -0.164203   
N2       N      0.233800000000     0.123070000000     0.402880000000    -0.164476   
N3       N      0.942500000000     0.802630000000     0.545210000000    -0.16378    
N4       N      0.098810000000     0.854120000000     0.484680000000    -0.164037   
N5       N      0.822780000000     0.102500000000     0.512460000000    -0.165051   
N6       N      0.882990000000     0.942610000000     0.524090000000    -0.16562    
N7       N      0.937380000000     0.211880000000     0.530840000000    -0.164838   
N8       N      0.095470000000     0.203950000000     0.428740000000    -0.165301   
N9       N      0.750040000000     0.772530000000     0.889070000000    -0.165371   
N10      N      0.789020000000     0.807080000000     0.610630000000    -0.165898   
N11      N      0.820470000000     0.837900000000     0.354270000000    -0.163404   
N12      N      0.728340000000     0.758450000000     0.147310000000    -0.163185   
N13      N      0.734750000000     0.336580000000     0.874590000000    -0.163937   
N14      N      0.806640000000     0.240850000000     0.661560000000    -0.163922   
N15      N      0.747460000000     0.341770000000     0.156260000000    -0.165783   
N16      N      0.798350000000     0.239430000000     0.380550000000    -0.165357   
N17      N      0.722690000000     0.475700000000     0.009260000000    -0.164958   
N18      N      0.666010000000     0.637310000000     0.002690000000    -0.165965   
N19      N      0.303220000000     0.743680000000     0.849210000000    -0.164278   
N20      N      0.240750000000     0.808750000000     0.595450000000    -0.165028   
N21      N      0.299010000000     0.739970000000     0.094780000000    -0.16505    
N22      N      0.241270000000     0.807930000000     0.347100000000    -0.165039   
N23      N      0.444370000000     0.699170000000     0.977800000000    -0.164173   
N24      N      0.596900000000     0.770560000000     0.969650000000    -0.163979   
N25      N      0.328210000000     0.297410000000     0.778300000000    -0.164676   
N26      N      0.209710000000     0.252780000000     0.584040000000    -0.165134   
N27      N      0.234390000000     0.264860000000     0.309100000000    -0.164265   
N28      N      0.313800000000     0.279200000000     0.051960000000    -0.164111   
N29      N      0.450030000000     0.341170000000     0.917510000000    -0.165841   
N30      N      0.605930000000     0.368290000000     0.023030000000    -0.164679   
N31      N      0.313780000000     0.422730000000     0.971660000000    -0.164158   
N32      N      0.342280000000     0.593200000000     0.968800000000    -0.164817   
O1       O      0.310900000000     0.308420000000     0.969530000000    -0.502717   
O2       O      0.356040000000     0.306540000000     0.011140000000    -0.49621    
O3       O      0.341640000000     0.340160000000     0.836240000000    -0.49566    
O4       O      0.321340000000     0.379710000000     0.911350000000    -0.49386    
O5       O      0.403110000000     0.312850000000     0.933200000000    -0.501155   
O6       O      0.345310000000     0.377540000000     0.989710000000    -0.502331   
O7       O      0.339860000000     0.292660000000     0.872120000000    -0.501515   
O8       O      0.399320000000     0.363460000000     0.914910000000    -0.508293   
O9       O      0.305690000000     0.701420000000     0.913110000000    -0.502022   
O10      O      0.346740000000     0.731890000000     0.905450000000    -0.499217   
O11      O      0.308500000000     0.694830000000     0.039900000000    -0.5019     
O12      O      0.350310000000     0.642090000000     0.014310000000    -0.504776   
O13      O      0.396350000000     0.691960000000     0.931310000000    -0.501538   
O14      O      0.337010000000     0.644320000000     0.928610000000    -0.501392   
O15      O      0.340040000000     0.735310000000     0.031570000000    -0.504827   
O16      O      0.394560000000     0.700490000000     0.018700000000    -0.501467   
O17      O      0.743650000000     0.350430000000     0.061200000000    -0.504571   
O18      O      0.705740000000     0.368000000000     0.111250000000    -0.501589   
O19      O      0.698040000000     0.342080000000     0.945650000000    -0.497897   
O20      O      0.657400000000     0.347870000000     0.029270000000    -0.494305   
O21      O      0.715380000000     0.427380000000     0.057610000000    -0.502214   
O22      O      0.652010000000     0.398320000000     0.009750000000    -0.505273   
O23      O      0.740400000000     0.370820000000     0.950130000000    -0.493527   
O24      O      0.709910000000     0.426160000000     0.969540000000    -0.495189   
O25      O      0.727140000000     0.731360000000     0.063130000000    -0.499533   
O26      O      0.688200000000     0.763070000000     0.081300000000    -0.487248   
O27      O      0.728770000000     0.730270000000     0.941030000000    -0.501985   
O28      O      0.676990000000     0.685750000000     0.957010000000    -0.499744   
O29      O      0.639810000000     0.759040000000     0.027250000000    -0.49026    
O30      O      0.675540000000     0.686750000000     0.045310000000    -0.508253   
O31      O      0.707330000000     0.777070000000     0.949210000000    -0.508837   
O32      O      0.644430000000     0.747350000000     0.941450000000    -0.499589   
O33      O      0.800330000000     0.228510000000     0.475130000000    -0.504186   
O34      O      0.839730000000     0.213140000000     0.426380000000    -0.497299   
O35      O      0.801990000000     0.207020000000     0.585140000000    -0.48871    
O36      O      0.828690000000     0.151090000000     0.559810000000    -0.494815   
O37      O      0.886580000000     0.230160000000     0.508490000000    -0.494868   
O38      O      0.834810000000     0.152240000000     0.472030000000    -0.502886   
O39      O      0.844200000000     0.235870000000     0.591920000000    -0.502034   
O40      O      0.890980000000     0.181820000000     0.540590000000    -0.505551   
O41      O      0.859130000000     0.828260000000     0.421370000000    -0.486698   
O42      O      0.818360000000     0.855870000000     0.445270000000    -0.501027   
O43      O      0.833960000000     0.803560000000     0.555450000000    -0.510661   
O44      O      0.900540000000     0.836760000000     0.567350000000    -0.501329   
O45      O      0.875830000000     0.895110000000     0.474270000000    -0.508969   
O46      O      0.897940000000     0.811620000000     0.490120000000    -0.486412   
O47      O      0.812450000000     0.850230000000     0.564040000000    -0.500205   
O48      O      0.864960000000     0.893750000000     0.560580000000    -0.495951   
O49      O      0.197710000000     0.818060000000     0.536990000000    -0.50648    
O50      O      0.236900000000     0.851040000000     0.531680000000    -0.499398   
O51      O      0.200000000000     0.814690000000     0.409480000000    -0.499473   
O52      O      0.145720000000     0.845290000000     0.436610000000    -0.497218   
O53      O      0.208950000000     0.908230000000     0.501370000000    -0.497829   
O54      O      0.149510000000     0.865150000000     0.518290000000    -0.505856   
O55      O      0.234430000000     0.852770000000     0.403640000000    -0.506352   
O56      O      0.189630000000     0.904500000000     0.419280000000    -0.506907   
O57      O      0.191330000000     0.238790000000     0.349540000000    -0.497556   
O58      O      0.235860000000     0.236820000000     0.392900000000    -0.502122   
O59      O      0.202810000000     0.255400000000     0.488630000000    -0.503372   
O60      O      0.142660000000     0.232640000000     0.418650000000    -0.499027   
O61      O      0.200500000000     0.166020000000     0.379280000000    -0.503251   
O62      O      0.146060000000     0.183050000000     0.444330000000    -0.50386    
O63      O      0.198890000000     0.208790000000     0.527250000000    -0.498341   
O64      O      0.226480000000     0.169470000000     0.455510000000    -0.496052   


