data_structure

_audit_creation_method RASPA-1.0
_audit_creation_date 2023-5-22
_audit_author_name 'Poobodin Mano'

_cell_length_a    36.2474
_cell_length_b    34.6957
_cell_length_c    30.3203
_cell_angle_alpha 90
_cell_angle_beta  90
_cell_angle_gamma 90
_cell_volume      38131.7

_symmetry_cell_setting          triclinic
_symmetry_space_group_name_Hall 'P 1'
_symmetry_space_group_name_H-M  'P 1'
_symmetry_Int_Tables_number     1

_symmetry_equiv_pos_as_xyz 'x,y,z'

loop_
_atom_site_label
_atom_site_type_symbol
_atom_site_fract_x
_atom_site_fract_y
_atom_site_fract_z
_atom_site_charge
C1       C      0.780290000000     0.434590000000     0.889880000000     0.404843   
C2       C      0.798950000000     0.346840000000     0.984920000000     0.404787   
C3       C      0.890570000000     0.361580000000     0.898970000000     0.404612   
C4       C      0.870080000000     0.461660000000     0.973450000000     0.407022   
C5       C      0.063100000000     0.556850000000     0.145580000000     0.409352   
C6       C      0.146800000000     0.573890000000     0.246510000000     0.404808   
C7       C      0.143940000000     0.649060000000     0.123800000000     0.401846   
C8       C      0.066190000000     0.666840000000     0.227350000000     0.410138   
C9       C      0.404000000000     0.917060000000     0.988410000000     0.410889   
C10      C      0.312470000000     0.917630000000     0.891230000000     0.404741   
C11      C      0.400180000000     0.829260000000     0.887310000000     0.406494   
C12      C      0.315650000000     0.827140000000     0.993170000000     0.40817    
C13      C      0.678960000000     0.148720000000     0.151140000000     0.404504   
C14      C      0.590810000000     0.184490000000     0.233000000000     0.406663   
C15      C      0.559420000000     0.093430000000     0.150610000000     0.404829   
C16      C      0.644520000000     0.058420000000     0.237280000000     0.407018   
C17      C      0.307770000000     0.386690000000     0.375390000000     0.405509   
C18      C      0.397390000000     0.298580000000     0.395490000000     0.413938   
C19      C      0.390910000000     0.403630000000     0.478690000000     0.404294   
C20      C      0.309130000000     0.309680000000     0.491580000000     0.402929   
C21      C      0.646290000000     0.607390000000     0.714920000000     0.407077   
C22      C      0.518930000000     0.639110000000     0.719330000000     0.407976   
C23      C      0.595990000000     0.688480000000     0.629830000000     0.406477   
C24      C      0.563930000000     0.555690000000     0.635090000000     0.405398   
C25      C      0.883560000000     0.789410000000     0.402580000000     0.406367   
C26      C      0.793610000000     0.810100000000     0.485920000000     0.401541   
C27      C      0.904260000000     0.882130000000     0.488290000000     0.405129   
C28      C      0.815930000000     0.907550000000     0.401790000000     0.40695    
C29      C      0.121350000000     0.075950000000     0.757630000000     0.406352   
C30      C      0.029840000000     0.163970000000     0.749430000000     0.409412   
C31      C      0.124390000000     0.160570000000     0.653150000000     0.406468   
C32      C      0.031820000000     0.075260000000     0.655600000000     0.408307   
C33      C      0.994810000000     0.022560000000     0.559660000000     0.0128374  
C34      C      0.990780000000     0.986130000000     0.491420000000    -0.0423401  
C35      C      0.961570000000     0.920620000000     0.487460000000    -0.0222041  
C36      C      0.972910000000     0.955860000000     0.513290000000     0.0127318  
C37      C      0.937680000000     0.891830000000     0.558280000000    -0.0224132  
C38      C      0.948340000000     0.928440000000     0.581740000000     0.0135204  
C39      C      0.001470000000     0.019130000000     0.514290000000    -0.0421943  
C40      C      0.965980000000     0.958750000000     0.558990000000    -0.00572567 
C41      C      0.941240000000     0.932030000000     0.626960000000    -0.0422262  
C42      C      0.951100000000     0.965440000000     0.649540000000    -0.0418916  
C43      C      0.978330000000     0.031770000000     0.652960000000    -0.0214327  
C44      C      0.968850000000     0.995780000000     0.627620000000     0.0129056  
C45      C      0.005910000000     0.059220000000     0.582830000000    -0.0222852  
C46      C      0.976580000000     0.992570000000     0.582210000000    -0.00520308 
C47      C      0.657070000000     0.764610000000     0.609350000000     0.0143682  
C48      C      0.717600000000     0.793660000000     0.616390000000    -0.0417882  
C49      C      0.764510000000     0.791880000000     0.555850000000    -0.0216567  
C50      C      0.726490000000     0.782950000000     0.573060000000     0.0121119  
C51      C      0.745790000000     0.760170000000     0.483350000000    -0.0214747  
C52      C      0.708630000000     0.752200000000     0.503610000000     0.0118814  
C53      C      0.683190000000     0.784870000000     0.634220000000    -0.0427242  
C54      C      0.700310000000     0.763210000000     0.547200000000    -0.0045703  
C55      C      0.682190000000     0.732360000000     0.478580000000    -0.0417386  
C56      C      0.647800000000     0.723370000000     0.496360000000    -0.0424072  
C57      C      0.602020000000     0.722970000000     0.558730000000    -0.0229641  
C58      C      0.639120000000     0.733750000000     0.539740000000     0.0140724  
C59      C      0.619990000000     0.755280000000     0.629220000000    -0.0233471  
C60      C      0.665270000000     0.754060000000     0.565400000000    -0.0069505  
C61      C      0.174230000000     0.244400000000     0.604920000000     0.012408   
C62      C      0.205880000000     0.305300000000     0.593570000000    -0.042078   
C63      C      0.266710000000     0.310200000000     0.554780000000    -0.0211763  
C64      C      0.234740000000     0.286540000000     0.571560000000     0.0123446  
C65      C      0.295850000000     0.247880000000     0.527680000000    -0.0216783  
C66      C      0.262350000000     0.226760000000     0.544440000000     0.0125902  
C67      C      0.175940000000     0.284530000000     0.609820000000    -0.0423125  
C68      C      0.233510000000     0.246220000000     0.566180000000    -0.00522576 
C69      C      0.260520000000     0.186680000000     0.539200000000    -0.0421827  
C70      C      0.230330000000     0.166000000000     0.554900000000    -0.0420875  
C71      C      0.169030000000     0.161250000000     0.592450000000    -0.0210655  
C72      C      0.201430000000     0.184780000000     0.576820000000     0.0120861  
C73      C      0.140650000000     0.223460000000     0.621790000000    -0.0220101  
C74      C      0.202850000000     0.225010000000     0.582710000000    -0.00523928 
C75      C      0.502890000000     0.477110000000     0.615110000000     0.013894   
C76      C      0.443040000000     0.445830000000     0.616330000000    -0.0418986  
C77      C      0.404550000000     0.437300000000     0.548260000000    -0.0219614  
C78      C      0.439420000000     0.450660000000     0.570610000000     0.0123519  
C79      C      0.431250000000     0.460560000000     0.475730000000    -0.0219548  
C80      C      0.464980000000     0.473640000000     0.500600000000     0.0126338  
C81      C      0.474530000000     0.458600000000     0.638260000000    -0.042652   
C82      C      0.467940000000     0.468650000000     0.546600000000    -0.00491886 
C83      C      0.493550000000     0.491840000000     0.477400000000    -0.041837   
C84      C      0.524900000000     0.504940000000     0.499320000000    -0.0421744  
C85      C      0.562420000000     0.515180000000     0.568000000000    -0.022595   
C86      C      0.528330000000     0.500400000000     0.545020000000     0.0138971  
C87      C      0.536910000000     0.490280000000     0.639450000000    -0.0231727  
C88      C      0.499930000000     0.481950000000     0.568980000000    -0.00630349 
C89      C      0.773400000000     0.958100000000     0.309590000000     0.0135341  
C90      C      0.741100000000     0.966600000000     0.240110000000    -0.042032   
C91      C      0.678100000000     0.996510000000     0.235690000000    -0.0224361  
C92      C      0.711270000000     0.983820000000     0.261920000000     0.0130357  
C93      C      0.649320000000     0.020630000000     0.306140000000    -0.0225565  
C94      C      0.682830000000     0.006200000000     0.330650000000     0.0130924  
C95      C      0.771950000000     0.954250000000     0.263610000000    -0.0423768  
C96      C      0.712400000000     0.988460000000     0.308140000000    -0.00558577 
C97      C      0.684380000000     0.010210000000     0.376600000000    -0.0420319  
C98      C      0.714920000000     0.997150000000     0.400180000000    -0.0421554  
C99      C      0.777280000000     0.966010000000     0.405090000000    -0.0224351  
C100     C      0.744620000000     0.979600000000     0.378430000000     0.0128507  
C101     C      0.807730000000     0.945740000000     0.333820000000    -0.0230732  
C102     C      0.743660000000     0.975380000000     0.332170000000    -0.00566903 
C103     C      0.514480000000     0.245050000000     0.256110000000     0.0142584  
C104     C      0.448710000000     0.257870000000     0.259070000000    -0.0417363  
C105     C      0.413590000000     0.259420000000     0.330490000000    -0.0214028  
C106     C      0.449190000000     0.255480000000     0.305230000000     0.0123603  
C107     C      0.449950000000     0.253730000000     0.401360000000    -0.0213262  
C108     C      0.483980000000     0.246790000000     0.373800000000     0.012055   
C109     C      0.481080000000     0.253250000000     0.234830000000    -0.042616   
C110     C      0.482720000000     0.248260000000     0.327320000000    -0.0047442  
C111     C      0.517420000000     0.238520000000     0.395020000000    -0.0416682  
C112     C      0.549430000000     0.231920000000     0.370710000000    -0.042371   
C113     C      0.583900000000     0.225840000000     0.299080000000    -0.0228271  
C114     C      0.548840000000     0.233600000000     0.324550000000     0.013732   
C115     C      0.549360000000     0.241020000000     0.229470000000    -0.0231927  
C116     C      0.515510000000     0.242430000000     0.302560000000    -0.00638925 
C117     C      0.232870000000     0.946360000000     0.822470000000     0.012823   
C118     C      0.171180000000     0.950460000000     0.791660000000    -0.0420833  
C119     C      0.135470000000     0.012240000000     0.788800000000    -0.0219193  
C120     C      0.169940000000     0.990120000000     0.800240000000     0.0125794  
C121     C      0.166550000000     0.072580000000     0.818090000000    -0.0215473  
C122     C      0.199810000000     0.048200000000     0.828910000000     0.012315   
C123     C      0.202360000000     0.928930000000     0.802270000000    -0.0422198  
C124     C      0.200460000000     0.008300000000     0.820150000000    -0.00523478 
C125     C      0.230410000000     0.065660000000     0.848870000000    -0.0420781  
C126     C      0.261480000000     0.044050000000     0.859810000000    -0.0421816  
C127     C      0.297010000000     0.982180000000     0.863490000000    -0.021847   
C128     C      0.262670000000     0.004340000000     0.851410000000     0.0124791  
C129     C      0.266590000000     0.922290000000     0.831760000000    -0.0218974  
C130     C      0.232200000000     0.986220000000     0.831350000000    -0.00539911 
C131     C      0.460290000000     0.749270000000     0.856000000000     0.0134781  
C132     C      0.487680000000     0.685390000000     0.856460000000    -0.0419228  
C133     C      0.485340000000     0.641830000000     0.790210000000    -0.0223419  
C134     C      0.476490000000     0.679390000000     0.812790000000     0.0143522  
C135     C      0.456030000000     0.666970000000     0.721200000000    -0.0224849  
C136     C      0.446200000000     0.703400000000     0.745790000000     0.0134447  
C137     C      0.480050000000     0.720120000000     0.877630000000    -0.041873   
C138     C      0.456910000000     0.708590000000     0.790250000000    -0.00618017 
C139     C      0.426400000000     0.732490000000     0.724220000000    -0.0423482  
C140     C      0.417560000000     0.766610000000     0.746060000000    -0.0420771  
C141     C      0.418370000000     0.809990000000     0.812220000000    -0.0221504  
C142     C      0.428340000000     0.772520000000     0.789960000000     0.0124348  
C143     C      0.454440000000     0.787270000000     0.878900000000    -0.0221893  
C144     C      0.448440000000     0.743640000000     0.812200000000    -0.00507631 
C145     C      0.508230000000     0.052370000000     0.058900000000     0.0138821  
C146     C      0.498520000000     0.015430000000     0.992000000000    -0.0417934  
C147     C      0.461090000000     0.954810000000     0.990480000000    -0.0207054  
C148     C      0.476100000000     0.989220000000     0.014790000000     0.0123273  
C149     C      0.427810000000     0.935360000000     0.061140000000    -0.0209554  
C150     C      0.446210000000     0.969140000000     0.083380000000     0.011773   
C151     C      0.514000000000     0.046900000000     0.013660000000    -0.0423725  
C152     C      0.469230000000     0.994720000000     0.060060000000    -0.00469574 
C153     C      0.440340000000     0.974780000000     0.128630000000    -0.0419715  
C154     C      0.456900000000     0.005450000000     0.150690000000    -0.0425429  
C155     C      0.497480000000     0.064000000000     0.153150000000    -0.0222496  
C156     C      0.479780000000     0.031290000000     0.128070000000     0.0127939  
C157     C      0.524470000000     0.087260000000     0.081170000000    -0.0229919  
C158     C      0.485730000000     0.026360000000     0.082420000000    -0.00605575 
C159     C      0.923650000000     0.739470000000     0.309170000000     0.0138404  
C160     C      0.950070000000     0.731410000000     0.236210000000    -0.0417141  
C161     C      0.016900000000     0.715760000000     0.224340000000    -0.0214107  
C162     C      0.984780000000     0.723700000000     0.254560000000     0.0128286  
C163     C      0.057540000000     0.709680000000     0.291520000000    -0.0219026  
C164     C      0.024000000000     0.716550000000     0.319910000000     0.0126766  
C165     C      0.919840000000     0.739050000000     0.263190000000    -0.0423799  
C166     C      0.989190000000     0.723860000000     0.300790000000    -0.00514681 
C167     C      0.027680000000     0.716360000000     0.365930000000    -0.0420469  
C168     C      0.997230000000     0.723030000000     0.392940000000    -0.0423913  
C169     C      0.929970000000     0.737350000000     0.404580000000    -0.0223293  
C170     C      0.962500000000     0.730650000000     0.374580000000     0.013297   
C171     C      0.890200000000     0.747160000000     0.337400000000    -0.0230865  
C172     C      0.958280000000     0.731270000000     0.328320000000    -0.00589247 
C173     C      0.178540000000     0.733370000000     0.066020000000     0.0136856  
C174     C      0.196720000000     0.800110000000     0.055980000000    -0.0418557  
C175     C      0.262380000000     0.819750000000     0.042760000000    -0.0215306  
C176     C      0.233540000000     0.789070000000     0.049720000000     0.012387   
C177     C      0.310030000000     0.766640000000     0.034880000000    -0.0220535  
C178     C      0.279840000000     0.737910000000     0.044320000000     0.0122657  
C179     C      0.169480000000     0.772560000000     0.063500000000    -0.0425826  
C180     C      0.243090000000     0.749700000000     0.051260000000    -0.00508914 
C181     C      0.288830000000     0.698670000000     0.046700000000    -0.0420902  
C182     C      0.261800000000     0.671200000000     0.055600000000    -0.0423394  
C183     C      0.196570000000     0.651690000000     0.072170000000    -0.0222624  
C184     C      0.225070000000     0.682280000000     0.062410000000     0.0129366  
C185     C      0.148320000000     0.704160000000     0.072650000000    -0.0233683  
C186     C      0.215410000000     0.721630000000     0.059830000000    -0.00597336 
C187     C      0.176660000000     0.492490000000     0.313670000000     0.0130343  
C188     C      0.185180000000     0.425950000000     0.336360000000    -0.0421713  
C189     C      0.247430000000     0.394260000000     0.338600000000    -0.0224499  
C190     C      0.223360000000     0.428970000000     0.329990000000     0.0124691  
C191     C      0.302390000000     0.434050000000     0.315140000000    -0.0227305  
C192     C      0.276850000000     0.467800000000     0.308400000000     0.0129025  
C193     C      0.162140000000     0.457370000000     0.328540000000    -0.0425707  
C194     C      0.238530000000     0.464160000000     0.315260000000    -0.00567556 
C195     C      0.291430000000     0.503060000000     0.294080000000    -0.0423189  
C196     C      0.268450000000     0.534630000000     0.286840000000    -0.0422242  
C197     C      0.206230000000     0.566400000000     0.285320000000    -0.0224127  
C198     C      0.230270000000     0.531570000000     0.293170000000     0.0128212  
C199     C      0.151030000000     0.526180000000     0.306720000000    -0.0231904  
C200     C      0.215040000000     0.496260000000     0.307420000000    -0.00587655 
C201     C      0.960050000000     0.285860000000     0.882830000000     0.0130601  
C202     C      0.991050000000     0.223900000000     0.886660000000    -0.0419792  
C203     C      0.001640000000     0.182380000000     0.820180000000    -0.0215082  
C204     C      0.986910000000     0.218750000000     0.841070000000     0.0121955  
C205     C      0.975220000000     0.205820000000     0.747430000000    -0.021362   
C206     C      0.963920000000     0.242480000000     0.770200000000     0.0129087  
C207     C      0.977840000000     0.257050000000     0.907270000000    -0.0424851  
C208     C      0.969060000000     0.247380000000     0.815910000000    -0.00493034 
C209     C      0.946780000000     0.271610000000     0.745590000000    -0.041771   
C210     C      0.935000000000     0.305460000000     0.765840000000    -0.0422897  
C211     C      0.926850000000     0.347800000000     0.832160000000    -0.0224259  
C212     C      0.939350000000     0.310630000000     0.811370000000     0.0136314  
C213     C      0.946580000000     0.321590000000     0.906260000000    -0.0227597  
C214     C      0.956170000000     0.281510000000     0.836800000000    -0.00584649 
C215     C      0.744610000000     0.259470000000     0.012660000000     0.0125746  
C216     C      0.718520000000     0.194970000000     0.013220000000    -0.0421054  
C217     C      0.714890000000     0.155080000000     0.082240000000    -0.0227859  
C218     C      0.725310000000     0.191690000000     0.058530000000     0.0138145  
C219     C      0.738030000000     0.184390000000     0.152840000000    -0.022712   
C220     C      0.748730000000     0.219920000000     0.127150000000     0.013278   
C221     C      0.727720000000     0.228600000000     0.990670000000    -0.0420981  
C222     C      0.742100000000     0.222520000000     0.081340000000    -0.00614196 
C223     C      0.765640000000     0.250710000000     0.149130000000    -0.0424474  
C224     C      0.775570000000     0.283960000000     0.126280000000    -0.042022   
C225     C      0.779910000000     0.323990000000     0.057870000000    -0.0214351  
C226     C      0.768940000000     0.287240000000     0.080860000000     0.0120166  
C227     C      0.751930000000     0.296100000000     0.987500000000    -0.0219078  
C228     C      0.751970000000     0.256610000000     0.058130000000    -0.00492137 
C229     C      0.716290000000     0.510800000000     0.859680000000     0.0131684  
C230     C      0.691010000000     0.575450000000     0.854060000000    -0.0420995  
C231     C      0.685600000000     0.610150000000     0.781560000000    -0.0226018  
C232     C      0.696500000000     0.575330000000     0.808340000000     0.013961   
C233     C      0.707640000000     0.576170000000     0.713560000000    -0.0226017  
C234     C      0.717830000000     0.541920000000     0.741680000000     0.0135242  
C235     C      0.700590000000     0.543460000000     0.879390000000    -0.0421922  
C236     C      0.712180000000     0.542630000000     0.787800000000    -0.00609635 
C237     C      0.733170000000     0.509150000000     0.721900000000    -0.0422052  
C238     C      0.742530000000     0.477100000000     0.747250000000    -0.0420974  
C239     C      0.747010000000     0.441830000000     0.819380000000    -0.0225585  
C240     C      0.737120000000     0.477210000000     0.793040000000     0.0130003  
C241     C      0.725090000000     0.476230000000     0.887850000000    -0.0230383  
C242     C      0.721900000000     0.510040000000     0.813630000000    -0.00549198 
C243     C      0.913690000000     0.506980000000     0.064670000000     0.0144327  
C244     C      0.941770000000     0.507520000000     0.137310000000    -0.0416617  
C245     C      0.010320000000     0.511880000000     0.148170000000    -0.0219502  
C246     C      0.976980000000     0.510590000000     0.118520000000     0.0133206  
C247     C      0.050440000000     0.515890000000     0.080610000000    -0.0223576  
C248     C      0.016040000000     0.514950000000     0.052620000000     0.0127762  
C249     C      0.910470000000     0.505950000000     0.110700000000    -0.0421941  
C250     C      0.980800000000     0.511980000000     0.072200000000    -0.00531301 
C251     C      0.019190000000     0.516500000000     0.006580000000    -0.042      
C252     C      0.987850000000     0.515390000000     0.979960000000    -0.0425064  
C253     C      0.919130000000     0.511080000000     0.969270000000    -0.0226272  
C254     C      0.952660000000     0.512260000000     0.998740000000     0.0134379  
C255     C      0.879340000000     0.505790000000     0.036650000000    -0.0232105  
C256     C      0.948900000000     0.510540000000     0.045090000000    -0.00612571 
H1       H      0.912750000000     0.879000000000     0.573860000000     0.0544742  
H2       H      0.985100000000     0.081730000000     0.575000000000     0.0407044  
H3       H      0.986320000000     0.902010000000     0.483710000000     0.0408698  
H4       H      0.985910000000     0.024130000000     0.687450000000     0.0526763  
H5       H      0.015010000000     0.042190000000     0.496440000000     0.0392066  
H6       H      0.996400000000     0.984250000000     0.456390000000     0.0392015  
H7       H      0.952890000000     0.929080000000     0.453620000000     0.051903   
H8       H      0.032930000000     0.069190000000     0.569630000000     0.0528894  
H9       H      0.927860000000     0.908910000000     0.644860000000     0.0397911  
H10      H      0.960520000000     0.870840000000     0.562910000000     0.0412189  
H11      H      0.944860000000     0.967620000000     0.684400000000     0.0392508  
H12      H      0.953020000000     0.049760000000     0.654990000000     0.0404831  
H13      H      0.742160000000     0.768210000000     0.448060000000     0.051403   
H14      H      0.601540000000     0.780370000000     0.623450000000     0.0397276  
H15      H      0.783990000000     0.770580000000     0.570240000000     0.0419333  
H16      H      0.591800000000     0.695640000000     0.543930000000     0.0539725  
H17      H      0.677070000000     0.793570000000     0.667740000000     0.0397663  
H18      H      0.737530000000     0.808790000000     0.636620000000     0.0394049  
H19      H      0.773420000000     0.820630000000     0.568210000000     0.0534136  
H20      H      0.622530000000     0.751110000000     0.665460000000     0.0527458  
H21      H      0.688320000000     0.723580000000     0.445080000000     0.0391558  
H22      H      0.761810000000     0.732860000000     0.483470000000     0.0410678  
H23      H      0.627970000000     0.707950000000     0.476270000000     0.0399862  
H24      H      0.582200000000     0.746000000000     0.549340000000     0.0399671  
H25      H      0.305570000000     0.234290000000     0.496520000000     0.0519794  
H26      H      0.117430000000     0.228990000000     0.598690000000     0.0426399  
H27      H      0.284460000000     0.317690000000     0.583410000000     0.0425584  
H28      H      0.179020000000     0.133120000000     0.605490000000     0.0513958  
H29      H      0.153890000000     0.299900000000     0.626340000000     0.03937    
H30      H      0.206500000000     0.336270000000     0.598110000000     0.0392244  
H31      H      0.256270000000     0.338000000000     0.541350000000     0.0529417  
H32      H      0.132720000000     0.235720000000     0.654370000000     0.0522166  
H33      H      0.282610000000     0.171290000000     0.522770000000     0.0391715  
H34      H      0.318370000000     0.243920000000     0.552140000000     0.0415967  
H35      H      0.229530000000     0.135080000000     0.549960000000     0.0393056  
H36      H      0.151610000000     0.154360000000     0.563320000000     0.043408   
H37      H      0.439440000000     0.449800000000     0.442560000000     0.0534161  
H38      H      0.556220000000     0.465450000000     0.641450000000     0.0402244  
H39      H      0.383200000000     0.459860000000     0.553300000000     0.040886   
H40      H      0.573110000000     0.541330000000     0.551040000000     0.0544041  
H41      H      0.476670000000     0.454270000000     0.673550000000     0.0395258  
H42      H      0.421290000000     0.432110000000     0.635160000000     0.039044   
H43      H      0.394120000000     0.410720000000     0.564600000000     0.0518347  
H44      H      0.529600000000     0.498890000000     0.673690000000     0.0527704  
H45      H      0.491500000000     0.496020000000     0.442070000000     0.0394419  
H46      H      0.413510000000     0.486210000000     0.470060000000     0.0410205  
H47      H      0.546560000000     0.518860000000     0.480530000000     0.0398492  
H48      H      0.584040000000     0.492620000000     0.564970000000     0.0402103  
H49      H      0.638330000000     0.047000000000     0.322350000000     0.0536384  
H50      H      0.828070000000     0.969640000000     0.331850000000     0.0414081  
H51      H      0.659790000000     0.971050000000     0.231720000000     0.040454   
H52      H      0.767710000000     0.954450000000     0.437350000000     0.0520849  
H53      H      0.794810000000     0.941510000000     0.245800000000     0.0397519  
H54      H      0.740560000000     0.962830000000     0.204640000000     0.0393623  
H55      H      0.686600000000     0.005530000000     0.201970000000     0.0519718  
H56      H      0.820000000000     0.920200000000     0.317180000000     0.0539941  
H57      H      0.661790000000     0.023580000000     0.394320000000     0.039656   
H58      H      0.627540000000     0.998220000000     0.308900000000     0.0408286  
H59      H      0.715400000000     0.000770000000     0.435670000000     0.0394393  
H60      H      0.794660000000     0.991570000000     0.412570000000     0.0405548  
H61      H      0.457440000000     0.270410000000     0.431400000000     0.0522265  
H62      H      0.561720000000     0.270170000000     0.225920000000     0.0402426  
H63      H      0.400480000000     0.230480000000     0.331800000000     0.0412967  
H64      H      0.600530000000     0.203290000000     0.315930000000     0.053945   
H65      H      0.480000000000     0.255750000000     0.199230000000     0.0396191  
H66      H      0.423130000000     0.263400000000     0.241710000000     0.0391447  
H67      H      0.394230000000     0.278690000000     0.312460000000     0.0512172  
H68      H      0.542880000000     0.230090000000     0.195870000000     0.0526429  
H69      H      0.518700000000     0.237070000000     0.430690000000     0.0391523  
H70      H      0.439780000000     0.225280000000     0.413020000000     0.0410883  
H71      H      0.574840000000     0.225430000000     0.388000000000     0.039728   
H72      H      0.600580000000     0.252710000000     0.299590000000     0.0401535  
H73      H      0.175670000000     0.101590000000     0.806810000000     0.0517116  
H74      H      0.282270000000     0.918980000000     0.800480000000     0.0427217  
H75      H      0.114930000000     0.007010000000     0.815350000000     0.0415438  
H76      H      0.308030000000     0.993120000000     0.895390000000     0.0521722  
H77      H      0.202690000000     0.898410000000     0.794710000000     0.0394643  
H78      H      0.147870000000     0.936090000000     0.776490000000     0.0394635  
H79      H      0.123250000000     0.000440000000     0.757940000000     0.0528421  
H80      H      0.257830000000     0.893010000000     0.842490000000     0.0531119  
H81      H      0.230230000000     0.096250000000     0.856030000000     0.0393835  
H82      H      0.150780000000     0.077170000000     0.849080000000     0.0422183  
H83      H      0.284790000000     0.058410000000     0.875000000000     0.0394254  
H84      H      0.318420000000     0.988510000000     0.838270000000     0.0417074  
H85      H      0.460860000000     0.673250000000     0.685690000000     0.0519406  
H86      H      0.479550000000     0.805120000000     0.873910000000     0.0410402  
H87      H      0.462210000000     0.621670000000     0.797070000000     0.0399685  
H88      H      0.389950000000     0.818620000000     0.802460000000     0.0524237  
H89      H      0.489720000000     0.724330000000     0.911100000000     0.0395266  
H90      H      0.502750000000     0.663250000000     0.874070000000     0.0401593  
H91      H      0.510740000000     0.628690000000     0.804280000000     0.0542624  
H92      H      0.451280000000     0.782360000000     0.914970000000     0.0535846  
H93      H      0.417840000000     0.728800000000     0.690250000000     0.0393812  
H94      H      0.431810000000     0.647390000000     0.723030000000     0.0396389  
H95      H      0.402280000000     0.788660000000     0.728540000000     0.0390455  
H96      H      0.437110000000     0.832720000000     0.799370000000     0.0403115  
H97      H      0.398920000000     0.932800000000     0.073260000000     0.0511414  
H98      H      0.505200000000     0.111790000000     0.076180000000     0.0416994  
H99      H      0.483360000000     0.932850000000     0.988550000000     0.0415254  
H100     H      0.505550000000     0.054050000000     0.186680000000     0.0519374  
H101     H      0.530840000000     0.066950000000     0.995060000000     0.0398058  
H102     H      0.504070000000     0.011490000000     0.957170000000     0.0391265  
H103     H      0.454520000000     0.963040000000     0.955860000000     0.0518774  
H104     H      0.551150000000     0.094900000000     0.065260000000     0.0549347  
H105     H      0.422850000000     0.955200000000     0.147020000000     0.0388919  
H106     H      0.442120000000     0.908620000000     0.071880000000     0.0408313  
H107     H      0.451890000000     0.009020000000     0.185680000000     0.0391705  
H108     H      0.476290000000     0.086780000000     0.157860000000     0.0408522  
H109     H      0.077010000000     0.689810000000     0.308490000000     0.0511443  
H110     H      0.874340000000     0.719860000000     0.340210000000     0.0406073  
H111     H      0.027520000000     0.743980000000     0.212530000000     0.0408862  
H112     H      0.939170000000     0.751180000000     0.435810000000     0.0518587  
H113     H      0.893300000000     0.744750000000     0.248100000000     0.0397514  
H114     H      0.946370000000     0.731500000000     0.200750000000     0.0394595  
H115     H      0.007310000000     0.699820000000     0.194630000000     0.0538914  
H116     H      0.872170000000     0.768770000000     0.320960000000     0.0545002  
H117     H      0.054260000000     0.710930000000     0.381020000000     0.0391079  
H118     H      0.072020000000     0.737700000000     0.287620000000     0.0407823  
H119     H      0.000810000000     0.722350000000     0.428410000000     0.039236   
H120     H      0.918490000000     0.708690000000     0.413510000000     0.0398848  
H121     H      0.329420000000     0.754380000000     0.010110000000     0.0527525  
H122     H      0.136200000000     0.697490000000     0.039860000000     0.0410213  
H123     H      0.270430000000     0.831040000000     0.075690000000     0.0419769  
H124     H      0.208850000000     0.628870000000     0.093370000000     0.0534393  
H125     H      0.141160000000     0.781910000000     0.067610000000     0.0394434  
H126     H      0.188990000000     0.830270000000     0.054920000000     0.0393739  
H127     H      0.250300000000     0.844400000000     0.024220000000     0.0517258  
H128     H      0.126120000000     0.716800000000     0.093450000000     0.0534688  
H129     H      0.317020000000     0.689250000000     0.041700000000     0.0391996  
H130     H      0.326230000000     0.770660000000     0.065650000000     0.0411595  
H131     H      0.269590000000     0.641090000000     0.057230000000     0.039371   
H132     H      0.189070000000     0.637660000000     0.040460000000     0.0413171  
H133     H      0.329850000000     0.444350000000     0.326530000000     0.053554   
H134     H      0.145770000000     0.539700000000     0.339350000000     0.0410421  
H135     H      0.245680000000     0.375140000000     0.309270000000     0.0409202  
H136     H      0.217710000000     0.584060000000     0.257930000000     0.0530106  
H137     H      0.132770000000     0.454260000000     0.334090000000     0.039343   
H138     H      0.173140000000     0.399090000000     0.347550000000     0.0393443  
H139     H      0.236350000000     0.377530000000     0.366980000000     0.0519782  
H140     H      0.124150000000     0.515650000000     0.293740000000     0.0531921  
H141     H      0.320800000000     0.506180000000     0.288490000000     0.0393986  
H142     H      0.306780000000     0.420260000000     0.282480000000     0.0409574  
H143     H      0.280530000000     0.561610000000     0.276090000000     0.0394086  
H144     H      0.207340000000     0.584560000000     0.315490000000     0.041205   
H145     H      0.983570000000     0.212160000000     0.712860000000     0.0525128  
H146     H      0.970710000000     0.340630000000     0.912350000000     0.0411971  
H147     H      0.982550000000     0.158410000000     0.828590000000     0.04052    
H148     H      0.902620000000     0.359480000000     0.814030000000     0.0546777  
H149     H      0.981500000000     0.260250000000     0.942540000000     0.0394255  
H150     H      0.004600000000     0.202080000000     0.906440000000     0.0391518  
H151     H      0.028710000000     0.174910000000     0.835260000000     0.0518604  
H152     H      0.934890000000     0.313400000000     0.938880000000     0.0524404  
H153     H      0.942510000000     0.268130000000     0.710440000000     0.0392559  
H154     H      0.950540000000     0.186890000000     0.745480000000     0.0405726  
H155     H      0.922240000000     0.327670000000     0.745890000000     0.0398204  
H156     H      0.949510000000     0.369110000000     0.828230000000     0.0415701  
H157     H      0.729730000000     0.192360000000     0.186970000000     0.0520771  
H158     H      0.725560000000     0.312230000000     0.984590000000     0.0416141  
H159     H      0.738230000000     0.134560000000     0.078490000000     0.040573   
H160     H      0.807600000000     0.333160000000     0.069830000000     0.052956   
H161     H      0.721470000000     0.230630000000     0.955800000000     0.0393051  
H162     H      0.705710000000     0.171510000000     0.995290000000     0.0398824  
H163     H      0.690460000000     0.141530000000     0.066350000000     0.0545293  
H164     H      0.761110000000     0.288730000000     0.953490000000     0.0513454  
H165     H      0.771100000000     0.249030000000     0.184210000000     0.039354   
H166     H      0.762990000000     0.165960000000     0.155740000000     0.0400607  
H167     H      0.788460000000     0.307390000000     0.144180000000     0.0393287  
H168     H      0.760450000000     0.347060000000     0.068170000000     0.0421402  
H169     H      0.699620000000     0.566760000000     0.679820000000     0.0519742  
H170     H      0.699220000000     0.459540000000     0.892540000000     0.0402863  
H171     H      0.709150000000     0.630650000000     0.782380000000     0.0397721  
H172     H      0.771500000000     0.427430000000     0.804620000000     0.0540036  
H173     H      0.695670000000     0.544170000000     0.914630000000     0.0392575  
H174     H      0.679070000000     0.600350000000     0.870200000000     0.0398455  
H175     H      0.661650000000     0.625070000000     0.796860000000     0.0540693  
H176     H      0.734620000000     0.485930000000     0.920920000000     0.0523572  
H177     H      0.737760000000     0.508300000000     0.686600000000     0.0394651  
H178     H      0.732720000000     0.594350000000     0.710100000000     0.0396404  
H179     H      0.754040000000     0.452000000000     0.731040000000     0.0395939  
H180     H      0.723660000000     0.421210000000     0.816620000000     0.0410286  
H181     H      0.072200000000     0.533440000000     0.064280000000     0.0514441  
H182     H      0.868460000000     0.535650000000     0.034170000000     0.0400907  
H183     H      0.017600000000     0.481660000000     0.156650000000     0.0401727  
H184     H      0.925970000000     0.497360000000     0.937140000000     0.051895   
H185     H      0.883580000000     0.503770000000     0.126100000000     0.0400048  
H186     H      0.938520000000     0.506350000000     0.172800000000     0.0397177  
H187     H      0.003460000000     0.526640000000     0.179700000000     0.0536007  
H188     H      0.857880000000     0.487750000000     0.052810000000     0.0545511  
H189     H      0.046070000000     0.518630000000     0.991160000000     0.0390709  
H190     H      0.061120000000     0.485930000000     0.082850000000     0.0401044  
H191     H      0.991080000000     0.516850000000     0.944480000000     0.0393333  
H192     H      0.911090000000     0.541360000000     0.962170000000     0.0398174  
In1      In     0.834750000000     0.400880000000     0.937050000000     2.41013    
In2      In     0.104970000000     0.610970000000     0.186000000000     2.39784    
In3      In     0.357340000000     0.872870000000     0.940630000000     2.40039    
In4      In     0.619000000000     0.121060000000     0.193690000000     2.40848    
In5      In     0.351440000000     0.349710000000     0.434480000000     2.39261    
In6      In     0.581420000000     0.622930000000     0.674660000000     2.41444    
In7      In     0.848610000000     0.847890000000     0.444030000000     2.40861    
In8      In     0.077930000000     0.119150000000     0.704430000000     2.40322    
N1       N      0.007440000000     0.054270000000     0.631030000000    -0.164875   
N2       N      0.932820000000     0.898660000000     0.510750000000    -0.164101   
N3       N      0.604410000000     0.721280000000     0.607080000000    -0.164816   
N4       N      0.766890000000     0.789690000000     0.507450000000    -0.164656   
N5       N      0.146210000000     0.181510000000     0.625240000000    -0.164816   
N6       N      0.289190000000     0.289450000000     0.522060000000    -0.163294   
N7       N      0.554880000000     0.521740000000     0.615050000000    -0.164291   
N8       N      0.409890000000     0.431740000000     0.500570000000    -0.165092   
N9       N      0.799710000000     0.937880000000     0.380550000000    -0.165083   
N10      N      0.657570000000     0.026810000000     0.259150000000    -0.165149   
N11      N      0.575540000000     0.215970000000     0.252950000000    -0.164727   
N12      N      0.420410000000     0.272540000000     0.375890000000    -0.165949   
N13      N      0.290860000000     0.940240000000     0.864830000000    -0.163942   
N14      N      0.142160000000     0.054000000000     0.785610000000    -0.164778   
N15      N      0.422520000000     0.807930000000     0.860470000000    -0.164758   
N16      N      0.487710000000     0.648010000000     0.742350000000    -0.164756   
N17      N      0.528820000000     0.080570000000     0.128800000000    -0.163988   
N18      N      0.428990000000     0.937530000000     0.012660000000    -0.165762   
N19      N      0.901150000000     0.759670000000     0.381890000000    -0.164812   
N20      N      0.046830000000     0.695570000000     0.247620000000    -0.165128   
N21      N      0.163050000000     0.668340000000     0.091820000000    -0.163471   
N22      N      0.295480000000     0.804350000000     0.020900000000    -0.165374   
N23      N      0.167660000000     0.555190000000     0.277360000000    -0.164371   
N24      N      0.286210000000     0.405350000000     0.345210000000    -0.165129   
N25      N      0.919430000000     0.342800000000     0.879520000000    -0.16394    
N26      N      0.004300000000     0.185310000000     0.771840000000    -0.165392   
N27      N      0.779260000000     0.320960000000     0.009420000000    -0.164975   
N28      N      0.709220000000     0.162580000000     0.129500000000    -0.16452    
N29      N      0.752500000000     0.451290000000     0.866220000000    -0.164891   
N30      N      0.678760000000     0.598890000000     0.735530000000    -0.165191   
N31      N      0.888430000000     0.491890000000     0.992130000000    -0.165023   
N32      N      0.041860000000     0.529600000000     0.125340000000    -0.165827   
O1       O      0.845200000000     0.443180000000     0.993390000000    -0.493339   
O2       O      0.876980000000     0.449700000000     0.935060000000    -0.5087     
O3       O      0.796070000000     0.349200000000     0.943530000000    -0.510374   
O4       O      0.785280000000     0.441190000000     0.930330000000    -0.509416   
O5       O      0.884570000000     0.360460000000     0.939990000000    -0.505307   
O6       O      0.802780000000     0.411030000000     0.873150000000    -0.492061   
O7       O      0.820420000000     0.371240000000     0.002060000000    -0.495505   
O8       O      0.868240000000     0.382140000000     0.877360000000    -0.493243   
O9       O      0.094820000000     0.651980000000     0.243880000000    -0.505706   
O10      O      0.057160000000     0.653430000000     0.190230000000    -0.49562    
O11      O      0.113520000000     0.565400000000     0.239240000000    -0.503124   
O12      O      0.091780000000     0.570710000000     0.128240000000    -0.506818   
O13      O      0.114370000000     0.661890000000     0.140090000000    -0.501606   
O14      O      0.055600000000     0.570180000000     0.183170000000    -0.498633   
O15      O      0.159110000000     0.601260000000     0.223330000000    -0.493928   
O16      O      0.154130000000     0.616840000000     0.138980000000    -0.486792   
O17      O      0.307070000000     0.861590000000     0.984630000000    -0.501637   
O18      O      0.344920000000     0.815730000000     0.974940000000    -0.502456   
O19      O      0.336330000000     0.931430000000     0.917170000000    -0.502084   
O20      O      0.406340000000     0.913710000000     0.947070000000    -0.502824   
O21      O      0.404830000000     0.831150000000     0.928450000000    -0.498151   
O22      O      0.377580000000     0.898790000000     0.005670000000    -0.505925   
O23      O      0.310940000000     0.881240000000     0.890620000000    -0.494482   
O24      O      0.373680000000     0.849190000000     0.872890000000    -0.497359   
O25      O      0.650050000000     0.063870000000     0.196700000000    -0.511282   
O26      O      0.625910000000     0.084460000000     0.255970000000    -0.495304   
O27      O      0.611990000000     0.161400000000     0.252870000000    -0.492084   
O28      O      0.673560000000     0.154140000000     0.191780000000    -0.507265   
O29      O      0.563380000000     0.090060000000     0.191810000000    -0.505732   
O30      O      0.654180000000     0.129410000000     0.132050000000    -0.491729   
O31      O      0.584370000000     0.175860000000     0.193350000000    -0.510018   
O32      O      0.585650000000     0.110330000000     0.131230000000    -0.490982   
O33      O      0.307400000000     0.345980000000     0.488180000000    -0.487087   
O34      O      0.331680000000     0.293650000000     0.465620000000    -0.502199   
O35      O      0.369200000000     0.311990000000     0.376490000000    -0.508082   
O36      O      0.341270000000     0.394870000000     0.381150000000    -0.497566   
O37      O      0.369010000000     0.380870000000     0.497740000000    -0.496948   
O38      O      0.296000000000     0.359680000000     0.399420000000    -0.498222   
O39      O      0.402330000000     0.310790000000     0.434240000000    -0.503409   
O40      O      0.393190000000     0.398960000000     0.437580000000    -0.495435   
O41      O      0.558340000000     0.561780000000     0.675570000000    -0.507676   
O42      O      0.578380000000     0.583500000000     0.614560000000    -0.492046   
O43      O      0.546950000000     0.624390000000     0.737390000000    -0.495408   
O44      O      0.620380000000     0.625160000000     0.733810000000    -0.493781   
O45      O      0.583730000000     0.658540000000     0.611320000000    -0.493779   
O46      O      0.639600000000     0.597630000000     0.675680000000    -0.509821   
O47      O      0.522280000000     0.645500000000     0.678540000000    -0.508625   
O48      O      0.600600000000     0.685460000000     0.670900000000    -0.509666   
O49      O      0.810880000000     0.900700000000     0.442200000000    -0.510556   
O50      O      0.837470000000     0.884380000000     0.382700000000    -0.497681   
O51      O      0.815150000000     0.832970000000     0.505510000000    -0.491077   
O52      O      0.890730000000     0.799110000000     0.441730000000    -0.509055   
O53      O      0.900150000000     0.885720000000     0.447130000000    -0.50558    
O54      O      0.858720000000     0.809210000000     0.384210000000    -0.492253   
O55      O      0.799500000000     0.806650000000     0.445100000000    -0.50716    
O56      O      0.880190000000     0.861540000000     0.507010000000    -0.491729   
O57      O      0.031660000000     0.075030000000     0.697210000000    -0.499967   
O58      O      0.055640000000     0.097200000000     0.638540000000    -0.49966    
O59      O      0.053550000000     0.143200000000     0.768520000000    -0.500803   
O60      O      0.098210000000     0.061500000000     0.731310000000    -0.502127   
O61      O      0.101620000000     0.176050000000     0.679200000000    -0.502638   
O62      O      0.122970000000     0.112300000000     0.756870000000    -0.500306   
O63      O      0.030870000000     0.162580000000     0.707900000000    -0.504015   
O64      O      0.124280000000     0.124180000000     0.653610000000    -0.500395   


