data_structure

_audit_creation_method RASPA-1.0
_audit_creation_date 2023-5-22
_audit_author_name 'Poobodin Mano'

_cell_length_a    40.3893
_cell_length_b    44.8601
_cell_length_c    37.8523
_cell_angle_alpha 90
_cell_angle_beta  90
_cell_angle_gamma 90
_cell_volume      68583.4

_symmetry_cell_setting          triclinic
_symmetry_space_group_name_Hall 'P 1'
_symmetry_space_group_name_H-M  'P 1'
_symmetry_Int_Tables_number     1

_symmetry_equiv_pos_as_xyz 'x,y,z'

loop_
_atom_site_label
_atom_site_type_symbol
_atom_site_fract_x
_atom_site_fract_y
_atom_site_fract_z
_atom_site_charge
C1       C      0.437380000000     0.207390000000     0.458730000000     0.420572   
C2       C      0.499360000000     0.211030000000     0.545300000000     0.416573   
C3       C      0.432140000000     0.130000000000     0.535310000000     0.416582   
C4       C      0.515820000000     0.131900000000     0.476650000000     0.422027   
C5       C      0.060760000000     0.261740000000     0.081990000000     0.416079   
C6       C      0.130710000000     0.340680000000     0.101090000000     0.41718    
C7       C      0.048820000000     0.330900000000     0.162390000000     0.424445   
C8       C      0.135310000000     0.259110000000     0.160340000000     0.423936   
C9       C      0.183170000000     0.380420000000     0.539050000000     0.42154    
C10      C      0.270410000000     0.383050000000     0.476330000000     0.418459   
C11      C      0.188690000000     0.460360000000     0.484690000000     0.422348   
C12      C      0.266380000000     0.450860000000     0.557140000000     0.415577   
C13      C      0.394280000000     0.004590000000     0.165530000000     0.418643   
C14      C      0.394240000000     0.085100000000     0.104690000000     0.421195   
C15      C      0.313850000000     0.012890000000     0.093760000000     0.417155   
C16      C      0.315170000000     0.080110000000     0.178520000000     0.422088   
C17      C      0.252970000000     0.133800000000     0.208010000000     0.421239   
C18      C      0.169010000000     0.201290000000     0.217640000000     0.422573   
C19      C      0.180370000000     0.121290000000     0.283740000000     0.424556   
C20      C      0.244380000000     0.203330000000     0.294850000000     0.422538   
C21      C      0.301430000000     0.331620000000     0.408950000000     0.418894   
C22      C      0.308870000000     0.249160000000     0.335250000000     0.41821    
C23      C      0.375180000000     0.327480000000     0.334380000000     0.419981   
C24      C      0.371740000000     0.253080000000     0.419820000000     0.419564   
C25      C      0.511020000000     0.375990000000     0.231650000000     0.423457   
C26      C      0.430930000000     0.454700000000     0.231160000000     0.420236   
C27      C      0.437010000000     0.381620000000     0.305610000000     0.416701   
C28      C      0.515950000000     0.457240000000     0.293150000000     0.418296   
C29      C      0.145520000000     0.005670000000     0.419260000000     0.418778   
C30      C      0.058390000000     0.081790000000     0.415650000000     0.419822   
C31      C      0.141340000000     0.079250000000     0.354410000000     0.419086   
C32      C      0.060120000000     0.001230000000     0.359020000000     0.417098   
C33      C      0.437380000000     0.207380000000     0.958720000000     0.420562   
C34      C      0.499360000000     0.211030000000     0.045300000000     0.416397   
C35      C      0.432130000000     0.130000000000     0.035310000000     0.416861   
C36      C      0.515820000000     0.131900000000     0.976650000000     0.422434   
C37      C      0.060750000000     0.261740000000     0.581980000000     0.415963   
C38      C      0.130710000000     0.340670000000     0.601090000000     0.417273   
C39      C      0.048820000000     0.330900000000     0.662390000000     0.42413    
C40      C      0.135310000000     0.259110000000     0.660340000000     0.42388    
C41      C      0.183170000000     0.380420000000     0.039050000000     0.421798   
C42      C      0.270410000000     0.383050000000     0.976330000000     0.418582   
C43      C      0.188690000000     0.460360000000     0.984690000000     0.422598   
C44      C      0.266380000000     0.450850000000     0.057140000000     0.415683   
C45      C      0.394280000000     0.004590000000     0.665530000000     0.418897   
C46      C      0.394240000000     0.085100000000     0.604700000000     0.421207   
C47      C      0.313850000000     0.012890000000     0.593760000000     0.417096   
C48      C      0.315170000000     0.080110000000     0.678520000000     0.42211    
C49      C      0.252970000000     0.133800000000     0.708010000000     0.421016   
C50      C      0.169010000000     0.201290000000     0.717640000000     0.422369   
C51      C      0.180370000000     0.121290000000     0.783730000000     0.424887   
C52      C      0.244380000000     0.203330000000     0.794840000000     0.422474   
C53      C      0.301430000000     0.331620000000     0.908950000000     0.418911   
C54      C      0.308870000000     0.249160000000     0.835240000000     0.418213   
C55      C      0.375180000000     0.327480000000     0.834380000000     0.420028   
C56      C      0.371740000000     0.253080000000     0.919810000000     0.419733   
C57      C      0.511020000000     0.375990000000     0.731650000000     0.423457   
C58      C      0.430930000000     0.454700000000     0.731170000000     0.419944   
C59      C      0.437010000000     0.381620000000     0.805610000000     0.416705   
C60      C      0.515950000000     0.457240000000     0.793150000000     0.418608   
C61      C      0.145520000000     0.005670000000     0.919260000000     0.418775   
C62      C      0.058390000000     0.081790000000     0.915650000000     0.419852   
C63      C      0.141340000000     0.079250000000     0.854410000000     0.419095   
C64      C      0.060120000000     0.001230000000     0.859020000000     0.417007   
C65      C      0.437380000000     0.707390000000     0.458720000000     0.420464   
C66      C      0.499360000000     0.711030000000     0.545300000000     0.416582   
C67      C      0.432140000000     0.630000000000     0.535310000000     0.416606   
C68      C      0.515820000000     0.631900000000     0.476650000000     0.422054   
C69      C      0.060750000000     0.761740000000     0.081990000000     0.415899   
C70      C      0.130710000000     0.840680000000     0.101090000000     0.417192   
C71      C      0.048820000000     0.830900000000     0.162390000000     0.424144   
C72      C      0.135310000000     0.759110000000     0.160340000000     0.424122   
C73      C      0.183170000000     0.880410000000     0.539050000000     0.421599   
C74      C      0.270410000000     0.883040000000     0.476330000000     0.418459   
C75      C      0.188690000000     0.960360000000     0.484680000000     0.422425   
C76      C      0.266380000000     0.950860000000     0.557140000000     0.415956   
C77      C      0.394280000000     0.504590000000     0.165530000000     0.41975    
C78      C      0.394240000000     0.585100000000     0.104700000000     0.421228   
C79      C      0.313850000000     0.512890000000     0.093760000000     0.417989   
C80      C      0.315170000000     0.580110000000     0.178520000000     0.42212    
C81      C      0.252970000000     0.633800000000     0.208010000000     0.421045   
C82      C      0.169010000000     0.701290000000     0.217640000000     0.422504   
C83      C      0.180370000000     0.621290000000     0.283740000000     0.42458    
C84      C      0.244380000000     0.703330000000     0.294840000000     0.422486   
C85      C      0.301430000000     0.831620000000     0.408950000000     0.418921   
C86      C      0.308870000000     0.749160000000     0.335250000000     0.418219   
C87      C      0.375180000000     0.827480000000     0.334380000000     0.42006    
C88      C      0.371740000000     0.753080000000     0.419820000000     0.419687   
C89      C      0.511020000000     0.875990000000     0.231650000000     0.423464   
C90      C      0.430930000000     0.954700000000     0.231160000000     0.419995   
C91      C      0.437010000000     0.881620000000     0.305610000000     0.416746   
C92      C      0.515950000000     0.957240000000     0.293150000000     0.418368   
C93      C      0.145520000000     0.505670000000     0.419270000000     0.41969    
C94      C      0.058390000000     0.581790000000     0.415650000000     0.419833   
C95      C      0.141340000000     0.579250000000     0.354410000000     0.4191     
C96      C      0.060120000000     0.501230000000     0.359020000000     0.417951   
C97      C      0.437380000000     0.707390000000     0.958720000000     0.420537   
C98      C      0.499360000000     0.711030000000     0.045300000000     0.416319   
C99      C      0.432130000000     0.630000000000     0.035310000000     0.416881   
C100     C      0.515820000000     0.631900000000     0.976650000000     0.422455   
C101     C      0.060750000000     0.761750000000     0.581980000000     0.415905   
C102     C      0.130710000000     0.840680000000     0.601090000000     0.417225   
C103     C      0.048820000000     0.830900000000     0.662380000000     0.424158   
C104     C      0.135310000000     0.759110000000     0.660340000000     0.424025   
C105     C      0.183170000000     0.880410000000     0.039050000000     0.421784   
C106     C      0.270410000000     0.883050000000     0.976320000000     0.418582   
C107     C      0.188690000000     0.960360000000     0.984680000000     0.422664   
C108     C      0.266380000000     0.950860000000     0.057140000000     0.415774   
C109     C      0.394280000000     0.504590000000     0.665530000000     0.419753   
C110     C      0.394240000000     0.585100000000     0.604700000000     0.421217   
C111     C      0.313850000000     0.512890000000     0.593760000000     0.417747   
C112     C      0.315180000000     0.580110000000     0.678520000000     0.422243   
C113     C      0.252970000000     0.633810000000     0.708000000000     0.421134   
C114     C      0.169010000000     0.701290000000     0.717640000000     0.422564   
C115     C      0.180370000000     0.621290000000     0.783730000000     0.424984   
C116     C      0.244380000000     0.703330000000     0.794840000000     0.422488   
C117     C      0.301430000000     0.831620000000     0.908950000000     0.418924   
C118     C      0.308870000000     0.749160000000     0.835250000000     0.418238   
C119     C      0.375180000000     0.827480000000     0.834380000000     0.420266   
C120     C      0.371740000000     0.753080000000     0.919810000000     0.41992    
C121     C      0.511020000000     0.875990000000     0.731650000000     0.423467   
C122     C      0.430930000000     0.954700000000     0.731170000000     0.420011   
C123     C      0.437010000000     0.881620000000     0.805610000000     0.416718   
C124     C      0.515950000000     0.957240000000     0.793150000000     0.418682   
C125     C      0.145520000000     0.505670000000     0.919260000000     0.419709   
C126     C      0.058390000000     0.581790000000     0.915650000000     0.419861   
C127     C      0.141340000000     0.579250000000     0.854410000000     0.4191     
C128     C      0.060120000000     0.501230000000     0.859020000000     0.417873   
C129     C      0.937380000000     0.207380000000     0.458720000000     0.420579   
C130     C      0.999360000000     0.211030000000     0.545300000000     0.416456   
C131     C      0.932140000000     0.130000000000     0.535310000000     0.416885   
C132     C      0.015820000000     0.131900000000     0.476650000000     0.422203   
C133     C      0.560750000000     0.261740000000     0.081980000000     0.416044   
C134     C      0.630710000000     0.340670000000     0.101090000000     0.417373   
C135     C      0.548820000000     0.330900000000     0.162380000000     0.424143   
C136     C      0.635310000000     0.259110000000     0.160340000000     0.424022   
C137     C      0.683170000000     0.380420000000     0.539050000000     0.421535   
C138     C      0.770400000000     0.383050000000     0.476330000000     0.418459   
C139     C      0.688690000000     0.460360000000     0.484680000000     0.422096   
C140     C      0.766380000000     0.450850000000     0.557140000000     0.415683   
C141     C      0.894280000000     0.004590000000     0.165530000000     0.418887   
C142     C      0.894240000000     0.085100000000     0.104700000000     0.42119    
C143     C      0.813850000000     0.012890000000     0.093760000000     0.417103   
C144     C      0.815170000000     0.080110000000     0.178520000000     0.421892   
C145     C      0.752970000000     0.133800000000     0.208010000000     0.421007   
C146     C      0.669010000000     0.201290000000     0.217640000000     0.422551   
C147     C      0.680370000000     0.121290000000     0.283730000000     0.425003   
C148     C      0.744380000000     0.203330000000     0.294840000000     0.422555   
C149     C      0.801430000000     0.331620000000     0.408950000000     0.418884   
C150     C      0.808870000000     0.249160000000     0.335250000000     0.418202   
C151     C      0.875180000000     0.327480000000     0.334380000000     0.41982    
C152     C      0.871740000000     0.253080000000     0.419810000000     0.419901   
C153     C      0.011020000000     0.375990000000     0.231660000000     0.423681   
C154     C      0.930930000000     0.454700000000     0.231170000000     0.420227   
C155     C      0.937010000000     0.381620000000     0.305610000000     0.416898   
C156     C      0.015950000000     0.457240000000     0.293160000000     0.418725   
C157     C      0.645520000000     0.005670000000     0.419260000000     0.418767   
C158     C      0.558390000000     0.081790000000     0.415640000000     0.419849   
C159     C      0.641340000000     0.079250000000     0.354410000000     0.419095   
C160     C      0.560120000000     0.001230000000     0.359020000000     0.417077   
C161     C      0.937380000000     0.207390000000     0.958720000000     0.420512   
C162     C      0.999360000000     0.211030000000     0.045300000000     0.416373   
C163     C      0.932140000000     0.130000000000     0.035310000000     0.416452   
C164     C      0.015820000000     0.131900000000     0.976650000000     0.422397   
C165     C      0.560760000000     0.261740000000     0.581990000000     0.416092   
C166     C      0.630710000000     0.340680000000     0.601090000000     0.417211   
C167     C      0.548820000000     0.330900000000     0.662390000000     0.424441   
C168     C      0.635310000000     0.259110000000     0.660340000000     0.423929   
C169     C      0.683170000000     0.380420000000     0.039050000000     0.421454   
C170     C      0.770410000000     0.383050000000     0.976330000000     0.418501   
C171     C      0.688690000000     0.460360000000     0.984690000000     0.422427   
C172     C      0.766380000000     0.450850000000     0.057140000000     0.415854   
C173     C      0.894280000000     0.004590000000     0.665530000000     0.418877   
C174     C      0.894240000000     0.085100000000     0.604700000000     0.421273   
C175     C      0.813850000000     0.012890000000     0.593760000000     0.417169   
C176     C      0.815170000000     0.080100000000     0.678520000000     0.42198    
C177     C      0.752970000000     0.133800000000     0.708010000000     0.421239   
C178     C      0.669010000000     0.201290000000     0.717640000000     0.422505   
C179     C      0.680370000000     0.121290000000     0.783740000000     0.424602   
C180     C      0.744380000000     0.203330000000     0.794840000000     0.422884   
C181     C      0.801430000000     0.331620000000     0.908950000000     0.419197   
C182     C      0.808870000000     0.249160000000     0.835250000000     0.418216   
C183     C      0.875180000000     0.327480000000     0.834390000000     0.41974    
C184     C      0.871740000000     0.253080000000     0.919810000000     0.419724   
C185     C      0.011020000000     0.375990000000     0.731650000000     0.423587   
C186     C      0.930930000000     0.454700000000     0.731170000000     0.42015    
C187     C      0.937010000000     0.381620000000     0.805610000000     0.4167     
C188     C      0.015950000000     0.457240000000     0.793150000000     0.418501   
C189     C      0.645520000000     0.005670000000     0.919270000000     0.418836   
C190     C      0.558390000000     0.081790000000     0.915650000000     0.420156   
C191     C      0.641340000000     0.079250000000     0.854410000000     0.4191     
C192     C      0.560120000000     0.001230000000     0.859030000000     0.417088   
C193     C      0.937380000000     0.707380000000     0.458720000000     0.420344   
C194     C      0.999360000000     0.711030000000     0.545300000000     0.416457   
C195     C      0.932140000000     0.630000000000     0.535310000000     0.416903   
C196     C      0.015820000000     0.631900000000     0.476650000000     0.422225   
C197     C      0.560750000000     0.761750000000     0.081980000000     0.416065   
C198     C      0.630710000000     0.840680000000     0.101090000000     0.417201   
C199     C      0.548820000000     0.830900000000     0.162380000000     0.424156   
C200     C      0.635310000000     0.759110000000     0.160340000000     0.423818   
C201     C      0.683170000000     0.880410000000     0.539050000000     0.421874   
C202     C      0.770410000000     0.883050000000     0.476330000000     0.418535   
C203     C      0.688690000000     0.960360000000     0.484680000000     0.422487   
C204     C      0.766380000000     0.950860000000     0.557140000000     0.415989   
C205     C      0.894280000000     0.504590000000     0.165530000000     0.419745   
C206     C      0.894240000000     0.585100000000     0.104700000000     0.421216   
C207     C      0.813850000000     0.512890000000     0.093760000000     0.418013   
C208     C      0.815170000000     0.580110000000     0.178520000000     0.421919   
C209     C      0.752970000000     0.633800000000     0.208010000000     0.421026   
C210     C      0.669010000000     0.701290000000     0.217640000000     0.422373   
C211     C      0.680370000000     0.621290000000     0.283730000000     0.424984   
C212     C      0.744380000000     0.703330000000     0.294840000000     0.422482   
C213     C      0.801430000000     0.831620000000     0.408950000000     0.418894   
C214     C      0.808870000000     0.749160000000     0.335250000000     0.418104   
C215     C      0.875180000000     0.827480000000     0.334380000000     0.419821   
C216     C      0.871740000000     0.753080000000     0.419810000000     0.419903   
C217     C      0.011020000000     0.875990000000     0.231650000000     0.423594   
C218     C      0.930930000000     0.954700000000     0.231170000000     0.420293   
C219     C      0.937010000000     0.881620000000     0.305610000000     0.416949   
C220     C      0.015950000000     0.957240000000     0.293150000000     0.418495   
C221     C      0.645520000000     0.505670000000     0.419260000000     0.419701   
C222     C      0.558390000000     0.581790000000     0.415640000000     0.419838   
C223     C      0.641340000000     0.579250000000     0.354410000000     0.419106   
C224     C      0.560120000000     0.501230000000     0.359020000000     0.417946   
C225     C      0.937380000000     0.707390000000     0.958720000000     0.420526   
C226     C      0.999360000000     0.711030000000     0.045300000000     0.416462   
C227     C      0.932140000000     0.630000000000     0.035310000000     0.416634   
C228     C      0.015820000000     0.631900000000     0.976650000000     0.42241    
C229     C      0.560760000000     0.761750000000     0.581990000000     0.416111   
C230     C      0.630710000000     0.840680000000     0.601090000000     0.417225   
C231     C      0.548820000000     0.830900000000     0.662390000000     0.424446   
C232     C      0.635310000000     0.759110000000     0.660340000000     0.423955   
C233     C      0.683170000000     0.880410000000     0.039050000000     0.421517   
C234     C      0.770410000000     0.883050000000     0.976330000000     0.418829   
C235     C      0.688690000000     0.960360000000     0.984690000000     0.4225     
C236     C      0.766380000000     0.950860000000     0.057140000000     0.415974   
C237     C      0.894280000000     0.504590000000     0.665530000000     0.419743   
C238     C      0.894240000000     0.585100000000     0.604700000000     0.421289   
C239     C      0.813850000000     0.512890000000     0.593760000000     0.417767   
C240     C      0.815170000000     0.580110000000     0.678520000000     0.422135   
C241     C      0.752970000000     0.633800000000     0.708010000000     0.421256   
C242     C      0.669010000000     0.701290000000     0.717640000000     0.422509   
C243     C      0.680370000000     0.621290000000     0.783740000000     0.42463    
C244     C      0.744380000000     0.703330000000     0.794840000000     0.42289    
C245     C      0.801430000000     0.831620000000     0.908950000000     0.419209   
C246     C      0.808870000000     0.749160000000     0.835250000000     0.418222   
C247     C      0.875180000000     0.827480000000     0.834390000000     0.419783   
C248     C      0.871740000000     0.753080000000     0.919820000000     0.419901   
C249     C      0.011020000000     0.875990000000     0.731650000000     0.423596   
C250     C      0.930930000000     0.954700000000     0.731160000000     0.42022    
C251     C      0.937010000000     0.881620000000     0.805610000000     0.416714   
C252     C      0.015950000000     0.957240000000     0.793150000000     0.418575   
C253     C      0.645520000000     0.505670000000     0.919270000000     0.419695   
C254     C      0.558390000000     0.581790000000     0.915650000000     0.420163   
C255     C      0.641340000000     0.579250000000     0.854410000000     0.419108   
C256     C      0.560120000000     0.501230000000     0.859030000000     0.417958   
H1       H      0.554100000000     0.487880000000     0.290930000000     0.130133   
H2       H      0.023850000000     0.968850000000     0.361340000000     0.130642   
H3       H      0.385920000000     0.347900000000     0.286820000000     0.128817   
H4       H      0.424550000000     0.362980000000     0.353730000000     0.129263   
H5       H      0.177140000000     0.112050000000     0.352780000000     0.129986   
H6       H      0.148330000000     0.085460000000     0.285150000000     0.131888   
H7       H      0.245850000000     0.232170000000     0.337400000000     0.129765   
H8       H      0.308100000000     0.218110000000     0.294910000000     0.128506   
H9       H      0.389030000000     0.481020000000     0.229530000000     0.129901   
H10      H      0.436030000000     0.977830000000     0.166490000000     0.128602   
H11      H      0.268360000000     0.118530000000     0.159130000000     0.127258   
H12      H      0.302220000000     0.097940000000     0.226910000000     0.128545   
H13      H      0.148720000000     0.489050000000     0.486490000000     0.129489   
H14      H      0.186750000000     0.978450000000     0.418020000000     0.129218   
H15      H      0.261320000000     0.360170000000     0.412140000000     0.12914    
H16      H      0.311530000000     0.355850000000     0.472160000000     0.127345   
H17      H      0.288520000000     0.459020000000     0.105450000000     0.128632   
H18      H      0.289980000000     0.005260000000     0.546380000000     0.128098   
H19      H      0.549110000000     0.345310000000     0.230350000000     0.129248   
H20      H      0.008330000000     0.359020000000     0.164450000000     0.129058   
H21      H      0.162750000000     0.376340000000     0.105410000000     0.131502   
H22      H      0.147350000000     0.347900000000     0.533940000000     0.131684   
H23      H      0.181850000000     0.241470000000     0.168390000000     0.129474   
H24      H      0.121800000000     0.217140000000     0.207850000000     0.128712   
H25      H      0.556620000000     0.104190000000     0.480860000000     0.128943   
H26      H      0.019540000000     0.111420000000     0.411180000000     0.129377   
H27      H      0.398310000000     0.095500000000     0.535870000000     0.130476   
H28      H      0.427370000000     0.120220000000     0.104400000000     0.130149   
H29      H      0.374150000000     0.224060000000     0.462230000000     0.127318   
H30      H      0.434460000000     0.235530000000     0.415620000000     0.128739   
H31      H      0.502030000000     0.236210000000     0.090920000000     0.129037   
H32      H      0.054540000000     0.241570000000     0.033380000000     0.12928    
H33      H      0.554100000000     0.487880000000     0.790930000000     0.130151   
H34      H      0.023850000000     0.968850000000     0.861340000000     0.130595   
H35      H      0.385920000000     0.347900000000     0.786820000000     0.128815   
H36      H      0.424550000000     0.362980000000     0.853730000000     0.12928    
H37      H      0.177140000000     0.112050000000     0.852780000000     0.130005   
H38      H      0.148330000000     0.085460000000     0.785150000000     0.131891   
H39      H      0.245850000000     0.232170000000     0.837400000000     0.129786   
H40      H      0.308090000000     0.218110000000     0.794900000000     0.128516   
H41      H      0.389030000000     0.481020000000     0.729540000000     0.129847   
H42      H      0.436030000000     0.977830000000     0.666490000000     0.128623   
H43      H      0.268360000000     0.118530000000     0.659130000000     0.127266   
H44      H      0.302220000000     0.097940000000     0.726900000000     0.12861    
H45      H      0.148710000000     0.489050000000     0.986490000000     0.129469   
H46      H      0.186750000000     0.978450000000     0.918020000000     0.129236   
H47      H      0.261320000000     0.360170000000     0.912140000000     0.12916    
H48      H      0.311530000000     0.355850000000     0.972150000000     0.127401   
H49      H      0.288520000000     0.459020000000     0.605450000000     0.128696   
H50      H      0.289980000000     0.005260000000     0.046380000000     0.128066   
H51      H      0.549110000000     0.345310000000     0.730350000000     0.129246   
H52      H      0.008330000000     0.359020000000     0.664450000000     0.129051   
H53      H      0.162750000000     0.376330000000     0.605420000000     0.131474   
H54      H      0.147350000000     0.347900000000     0.033940000000     0.13165    
H55      H      0.181850000000     0.241460000000     0.668380000000     0.129477   
H56      H      0.121800000000     0.217140000000     0.707850000000     0.128675   
H57      H      0.556620000000     0.104190000000     0.980860000000     0.129012   
H58      H      0.019540000000     0.111420000000     0.911180000000     0.129399   
H59      H      0.398300000000     0.095500000000     0.035870000000     0.130409   
H60      H      0.427370000000     0.120220000000     0.604400000000     0.130153   
H61      H      0.374150000000     0.224060000000     0.962220000000     0.127469   
H62      H      0.434460000000     0.235530000000     0.915610000000     0.128715   
H63      H      0.502030000000     0.236210000000     0.590920000000     0.129056   
H64      H      0.054530000000     0.241570000000     0.533380000000     0.129333   
H65      H      0.554100000000     0.987880000000     0.290930000000     0.130416   
H66      H      0.023850000000     0.468850000000     0.361340000000     0.130478   
H67      H      0.385920000000     0.847900000000     0.286820000000     0.128844   
H68      H      0.424550000000     0.862980000000     0.353730000000     0.129247   
H69      H      0.177140000000     0.612050000000     0.352780000000     0.130025   
H70      H      0.148330000000     0.585460000000     0.285150000000     0.131981   
H71      H      0.245850000000     0.732170000000     0.337400000000     0.129782   
H72      H      0.308100000000     0.718110000000     0.294910000000     0.128518   
H73      H      0.389030000000     0.981020000000     0.229530000000     0.130107   
H74      H      0.436030000000     0.477840000000     0.166490000000     0.128449   
H75      H      0.268360000000     0.618530000000     0.159130000000     0.127292   
H76      H      0.302220000000     0.597940000000     0.226910000000     0.128617   
H77      H      0.148720000000     0.989050000000     0.486490000000     0.129717   
H78      H      0.186750000000     0.478450000000     0.418020000000     0.129044   
H79      H      0.261330000000     0.860170000000     0.412140000000     0.129224   
H80      H      0.311530000000     0.855850000000     0.472160000000     0.127379   
H81      H      0.288520000000     0.959020000000     0.105450000000     0.128864   
H82      H      0.289980000000     0.505260000000     0.546380000000     0.128874   
H83      H      0.549110000000     0.845310000000     0.230350000000     0.129268   
H84      H      0.008330000000     0.859020000000     0.164450000000     0.129075   
H85      H      0.162750000000     0.876340000000     0.105410000000     0.131547   
H86      H      0.147350000000     0.847900000000     0.533940000000     0.131764   
H87      H      0.181850000000     0.741460000000     0.168380000000     0.129475   
H88      H      0.121800000000     0.717140000000     0.207850000000     0.128688   
H89      H      0.556620000000     0.604190000000     0.480860000000     0.129007   
H90      H      0.019540000000     0.611420000000     0.411170000000     0.129382   
H91      H      0.398310000000     0.595500000000     0.535870000000     0.130548   
H92      H      0.427370000000     0.620210000000     0.104400000000     0.130212   
H93      H      0.374150000000     0.724060000000     0.462230000000     0.127323   
H94      H      0.434460000000     0.735530000000     0.415610000000     0.128714   
H95      H      0.502030000000     0.736210000000     0.090920000000     0.128992   
H96      H      0.054540000000     0.741570000000     0.033380000000     0.129296   
H97      H      0.554100000000     0.987880000000     0.790930000000     0.130434   
H98      H      0.023850000000     0.468850000000     0.861340000000     0.13044    
H99      H      0.385920000000     0.847900000000     0.786820000000     0.12885    
H100     H      0.424550000000     0.862980000000     0.853730000000     0.129313   
H101     H      0.177140000000     0.612050000000     0.852780000000     0.130041   
H102     H      0.148330000000     0.585460000000     0.785150000000     0.131982   
H103     H      0.245850000000     0.732180000000     0.837390000000     0.129812   
H104     H      0.308090000000     0.718110000000     0.794900000000     0.128521   
H105     H      0.389030000000     0.981020000000     0.729540000000     0.130114   
H106     H      0.436030000000     0.477840000000     0.666490000000     0.128464   
H107     H      0.268360000000     0.618530000000     0.659130000000     0.127306   
H108     H      0.302220000000     0.597940000000     0.726900000000     0.128705   
H109     H      0.148710000000     0.989050000000     0.986490000000     0.129758   
H110     H      0.186750000000     0.478450000000     0.918020000000     0.129054   
H111     H      0.261320000000     0.860170000000     0.912140000000     0.129192   
H112     H      0.311530000000     0.855850000000     0.972150000000     0.127439   
H113     H      0.288520000000     0.959020000000     0.605450000000     0.128921   
H114     H      0.289980000000     0.505260000000     0.046380000000     0.128842   
H115     H      0.549110000000     0.845310000000     0.730350000000     0.129264   
H116     H      0.008330000000     0.859020000000     0.664450000000     0.129075   
H117     H      0.162750000000     0.876330000000     0.605410000000     0.131598   
H118     H      0.147350000000     0.847900000000     0.033940000000     0.131672   
H119     H      0.181850000000     0.741460000000     0.668380000000     0.129453   
H120     H      0.121800000000     0.717140000000     0.707850000000     0.128692   
H121     H      0.556620000000     0.604190000000     0.980860000000     0.129076   
H122     H      0.019540000000     0.611420000000     0.911180000000     0.129442   
H123     H      0.398300000000     0.595500000000     0.035870000000     0.130488   
H124     H      0.427380000000     0.620220000000     0.604400000000     0.130156   
H125     H      0.374150000000     0.724060000000     0.962230000000     0.127436   
H126     H      0.434460000000     0.735530000000     0.915610000000     0.128729   
H127     H      0.502030000000     0.736210000000     0.590920000000     0.129067   
H128     H      0.054530000000     0.741570000000     0.533380000000     0.129313   
H129     H      0.054100000000     0.487880000000     0.290930000000     0.130164   
H130     H      0.523850000000     0.968850000000     0.361340000000     0.130612   
H131     H      0.885920000000     0.347900000000     0.286820000000     0.128803   
H132     H      0.924550000000     0.362980000000     0.353730000000     0.129265   
H133     H      0.677130000000     0.112050000000     0.352780000000     0.130024   
H134     H      0.648330000000     0.085460000000     0.285150000000     0.131857   
H135     H      0.745850000000     0.232170000000     0.337400000000     0.129761   
H136     H      0.808100000000     0.218110000000     0.294900000000     0.128467   
H137     H      0.889030000000     0.481020000000     0.229540000000     0.129849   
H138     H      0.936030000000     0.977830000000     0.166490000000     0.128594   
H139     H      0.768360000000     0.118530000000     0.159120000000     0.127198   
H140     H      0.802220000000     0.097940000000     0.226900000000     0.128595   
H141     H      0.648710000000     0.489050000000     0.486490000000     0.129385   
H142     H      0.686750000000     0.978450000000     0.418020000000     0.129218   
H143     H      0.761320000000     0.360170000000     0.412140000000     0.129141   
H144     H      0.811530000000     0.355850000000     0.472150000000     0.127274   
H145     H      0.788520000000     0.459020000000     0.105450000000     0.128688   
H146     H      0.789970000000     0.005260000000     0.546380000000     0.128089   
H147     H      0.049110000000     0.345310000000     0.230350000000     0.129299   
H148     H      0.508330000000     0.359020000000     0.164450000000     0.128999   
H149     H      0.662750000000     0.376330000000     0.105410000000     0.131497   
H150     H      0.647350000000     0.347900000000     0.533940000000     0.131676   
H151     H      0.681850000000     0.241460000000     0.168380000000     0.129437   
H152     H      0.621800000000     0.217140000000     0.207850000000     0.128668   
H153     H      0.056620000000     0.104190000000     0.480860000000     0.128978   
H154     H      0.519540000000     0.111420000000     0.411180000000     0.129347   
H155     H      0.898300000000     0.095500000000     0.535870000000     0.130442   
H156     H      0.927370000000     0.120220000000     0.104400000000     0.130126   
H157     H      0.874150000000     0.224060000000     0.462230000000     0.127381   
H158     H      0.934460000000     0.235530000000     0.415610000000     0.128686   
H159     H      0.002030000000     0.236210000000     0.090920000000     0.129024   
H160     H      0.554540000000     0.241570000000     0.033380000000     0.129236   
H161     H      0.054100000000     0.487880000000     0.790930000000     0.130142   
H162     H      0.523850000000     0.968850000000     0.861340000000     0.130617   
H163     H      0.885920000000     0.347900000000     0.786820000000     0.128804   
H164     H      0.924550000000     0.362980000000     0.853730000000     0.129278   
H165     H      0.677130000000     0.112050000000     0.852780000000     0.13004    
H166     H      0.648330000000     0.085460000000     0.785150000000     0.131862   
H167     H      0.745850000000     0.232170000000     0.837400000000     0.129788   
H168     H      0.808100000000     0.218110000000     0.794910000000     0.128507   
H169     H      0.889030000000     0.481020000000     0.729540000000     0.129797   
H170     H      0.936030000000     0.977830000000     0.666490000000     0.128598   
H171     H      0.768360000000     0.118530000000     0.659130000000     0.127278   
H172     H      0.802220000000     0.097940000000     0.726900000000     0.12859    
H173     H      0.648720000000     0.489050000000     0.986490000000     0.129495   
H174     H      0.686750000000     0.978450000000     0.918020000000     0.129238   
H175     H      0.761330000000     0.360180000000     0.912150000000     0.129238   
H176     H      0.811530000000     0.355850000000     0.972160000000     0.127355   
H177     H      0.788520000000     0.459020000000     0.605450000000     0.128644   
H178     H      0.789980000000     0.005260000000     0.046380000000     0.128059   
H179     H      0.049110000000     0.345310000000     0.730350000000     0.129257   
H180     H      0.508330000000     0.359020000000     0.664450000000     0.12903    
H181     H      0.662750000000     0.376330000000     0.605410000000     0.131551   
H182     H      0.647350000000     0.347900000000     0.033940000000     0.131658   
H183     H      0.681850000000     0.241470000000     0.668380000000     0.129457   
H184     H      0.621800000000     0.217140000000     0.707850000000     0.128673   
H185     H      0.056620000000     0.104190000000     0.980860000000     0.129059   
H186     H      0.519540000000     0.111420000000     0.911180000000     0.129378   
H187     H      0.898300000000     0.095500000000     0.035870000000     0.130336   
H188     H      0.927370000000     0.120210000000     0.604400000000     0.130176   
H189     H      0.874150000000     0.224060000000     0.962230000000     0.127358   
H190     H      0.934460000000     0.235530000000     0.915610000000     0.1287     
H191     H      0.002030000000     0.236210000000     0.590920000000     0.129092   
H192     H      0.554540000000     0.241570000000     0.533380000000     0.129305   
H193     H      0.054100000000     0.987880000000     0.290930000000     0.130428   
H194     H      0.523850000000     0.468850000000     0.361340000000     0.130457   
H195     H      0.885920000000     0.847900000000     0.286820000000     0.128829   
H196     H      0.924550000000     0.862980000000     0.353730000000     0.129246   
H197     H      0.677130000000     0.612050000000     0.352780000000     0.13006    
H198     H      0.648330000000     0.585460000000     0.285150000000     0.131975   
H199     H      0.745850000000     0.732170000000     0.337400000000     0.129782   
H200     H      0.808100000000     0.718110000000     0.294900000000     0.12847    
H201     H      0.889030000000     0.981020000000     0.229540000000     0.130118   
H202     H      0.936030000000     0.477840000000     0.166490000000     0.128434   
H203     H      0.768360000000     0.618530000000     0.159120000000     0.127237   
H204     H      0.802220000000     0.597940000000     0.226900000000     0.128662   
H205     H      0.648710000000     0.989050000000     0.486490000000     0.129676   
H206     H      0.686750000000     0.478450000000     0.418020000000     0.129038   
H207     H      0.761320000000     0.860170000000     0.412140000000     0.12918    
H208     H      0.811530000000     0.855850000000     0.472150000000     0.127306   
H209     H      0.788520000000     0.959030000000     0.105450000000     0.128951   
H210     H      0.789980000000     0.505260000000     0.546380000000     0.128875   
H211     H      0.049110000000     0.845310000000     0.230350000000     0.129274   
H212     H      0.508330000000     0.859020000000     0.164450000000     0.129033   
H213     H      0.662750000000     0.876330000000     0.105420000000     0.131545   
H214     H      0.647350000000     0.847900000000     0.533940000000     0.131772   
H215     H      0.681850000000     0.741460000000     0.168380000000     0.129438   
H216     H      0.621800000000     0.717140000000     0.207850000000     0.128677   
H217     H      0.056620000000     0.604190000000     0.480860000000     0.129044   
H218     H      0.519540000000     0.611420000000     0.411170000000     0.129346   
H219     H      0.898300000000     0.595500000000     0.535870000000     0.130515   
H220     H      0.927370000000     0.620210000000     0.104400000000     0.130202   
H221     H      0.874150000000     0.724060000000     0.462230000000     0.127396   
H222     H      0.934460000000     0.735530000000     0.415610000000     0.128688   
H223     H      0.002030000000     0.736210000000     0.090920000000     0.129037   
H224     H      0.554540000000     0.741570000000     0.033380000000     0.129232   
H225     H      0.054100000000     0.987880000000     0.790930000000     0.130427   
H226     H      0.523850000000     0.468850000000     0.861340000000     0.130462   
H227     H      0.885920000000     0.847900000000     0.786820000000     0.128828   
H228     H      0.924550000000     0.862980000000     0.853730000000     0.129307   
H229     H      0.677130000000     0.612050000000     0.852780000000     0.130077   
H230     H      0.648330000000     0.585460000000     0.785150000000     0.131955   
H231     H      0.745850000000     0.732170000000     0.837400000000     0.129796   
H232     H      0.808100000000     0.718110000000     0.794910000000     0.128519   
H233     H      0.889030000000     0.981020000000     0.729530000000     0.130116   
H234     H      0.936030000000     0.477840000000     0.666490000000     0.128443   
H235     H      0.768360000000     0.618530000000     0.659130000000     0.127312   
H236     H      0.802220000000     0.597940000000     0.726900000000     0.128677   
H237     H      0.648720000000     0.989050000000     0.986490000000     0.129776   
H238     H      0.686750000000     0.478450000000     0.918020000000     0.129064   
H239     H      0.761330000000     0.860170000000     0.912150000000     0.12929    
H240     H      0.811530000000     0.855850000000     0.972150000000     0.127429   
H241     H      0.788520000000     0.959020000000     0.605450000000     0.128874   
H242     H      0.789980000000     0.505260000000     0.046380000000     0.128838   
H243     H      0.049110000000     0.845310000000     0.730350000000     0.129281   
H244     H      0.508330000000     0.859020000000     0.664450000000     0.129064   
H245     H      0.662750000000     0.876340000000     0.605410000000     0.131555   
H246     H      0.647350000000     0.847900000000     0.033940000000     0.13166    
H247     H      0.681850000000     0.741470000000     0.668390000000     0.129488   
H248     H      0.621800000000     0.717140000000     0.707850000000     0.128688   
H249     H      0.056620000000     0.604190000000     0.980860000000     0.129122   
H250     H      0.519540000000     0.611420000000     0.911180000000     0.129423   
H251     H      0.898300000000     0.595500000000     0.035870000000     0.130412   
H252     H      0.927370000000     0.620210000000     0.604400000000     0.13021    
H253     H      0.874150000000     0.724060000000     0.962230000000     0.127436   
H254     H      0.934460000000     0.735530000000     0.915610000000     0.128714   
H255     H      0.002030000000     0.736210000000     0.590920000000     0.129102   
H256     H      0.554540000000     0.741570000000     0.533380000000     0.129306   
In1      In     0.470730000000     0.170470000000     0.502890000000     2.41191    
In2      In     0.093270000000     0.297020000000     0.127800000000     2.42874    
In3      In     0.228360000000     0.418530000000     0.513190000000     2.41406    
In4      In     0.353610000000     0.045580000000     0.136280000000     2.3925     
In5      In     0.212630000000     0.165480000000     0.250710000000     2.42009    
In6      In     0.339350000000     0.290460000000     0.375570000000     2.39999    
In7      In     0.473670000000     0.417600000000     0.264340000000     2.412      
In8      In     0.100860000000     0.041650000000     0.388200000000     2.44224    
In9      In     0.470730000000     0.170470000000     0.002880000000     2.41151    
In10     In     0.093270000000     0.297020000000     0.627800000000     2.42831    
In11     In     0.228350000000     0.418530000000     0.013180000000     2.41373    
In12     In     0.353610000000     0.045580000000     0.636280000000     2.39268    
In13     In     0.212630000000     0.165480000000     0.750710000000     2.41971    
In14     In     0.339340000000     0.290460000000     0.875570000000     2.40014    
In15     In     0.473670000000     0.417600000000     0.764340000000     2.41201    
In16     In     0.100860000000     0.041660000000     0.888190000000     2.44215    
In17     In     0.470730000000     0.670470000000     0.502890000000     2.41194    
In18     In     0.093270000000     0.797020000000     0.127800000000     2.42847    
In19     In     0.228360000000     0.918530000000     0.513180000000     2.41436    
In20     In     0.353610000000     0.545580000000     0.136280000000     2.39286    
In21     In     0.212630000000     0.665480000000     0.250710000000     2.4199     
In22     In     0.339350000000     0.790460000000     0.375570000000     2.39998    
In23     In     0.473670000000     0.917600000000     0.264340000000     2.41191    
In24     In     0.100860000000     0.541650000000     0.388200000000     2.44229    
In25     In     0.470730000000     0.670470000000     0.002880000000     2.41153    
In26     In     0.093270000000     0.797020000000     0.627800000000     2.42839    
In27     In     0.228350000000     0.918530000000     0.013180000000     2.41386    
In28     In     0.353610000000     0.545580000000     0.636280000000     2.39287    
In29     In     0.212630000000     0.665480000000     0.750710000000     2.42005    
In30     In     0.339340000000     0.790460000000     0.875570000000     2.40024    
In31     In     0.473670000000     0.917600000000     0.764340000000     2.41209    
In32     In     0.100860000000     0.541650000000     0.888200000000     2.4423     
In33     In     0.970730000000     0.170470000000     0.502880000000     2.41189    
In34     In     0.593270000000     0.297020000000     0.127800000000     2.42855    
In35     In     0.728350000000     0.418530000000     0.513180000000     2.41387    
In36     In     0.853610000000     0.045580000000     0.136280000000     2.39258    
In37     In     0.712630000000     0.165480000000     0.250710000000     2.41989    
In38     In     0.839350000000     0.290460000000     0.375570000000     2.39989    
In39     In     0.973670000000     0.417600000000     0.264340000000     2.41188    
In40     In     0.600860000000     0.041660000000     0.388200000000     2.44209    
In41     In     0.970740000000     0.170470000000     0.002880000000     2.41121    
In42     In     0.593270000000     0.297020000000     0.627800000000     2.42886    
In43     In     0.728350000000     0.418530000000     0.013190000000     2.41375    
In44     In     0.853610000000     0.045580000000     0.636280000000     2.39267    
In45     In     0.712630000000     0.165480000000     0.750710000000     2.42012    
In46     In     0.839350000000     0.290460000000     0.875570000000     2.40004    
In47     In     0.973670000000     0.417600000000     0.764340000000     2.41199    
In48     In     0.600860000000     0.041660000000     0.888200000000     2.44218    
In49     In     0.970730000000     0.670470000000     0.502880000000     2.41171    
In50     In     0.593270000000     0.797020000000     0.127800000000     2.42855    
In51     In     0.728350000000     0.918530000000     0.513180000000     2.41434    
In52     In     0.853610000000     0.545580000000     0.136280000000     2.39278    
In53     In     0.712630000000     0.665480000000     0.250710000000     2.41991    
In54     In     0.839350000000     0.790460000000     0.375570000000     2.39989    
In55     In     0.973670000000     0.917600000000     0.264340000000     2.41191    
In56     In     0.600860000000     0.541650000000     0.388200000000     2.44227    
In57     In     0.970730000000     0.670470000000     0.002880000000     2.41117    
In58     In     0.593280000000     0.797020000000     0.627800000000     2.42886    
In59     In     0.728360000000     0.918530000000     0.013190000000     2.41386    
In60     In     0.853610000000     0.545580000000     0.636280000000     2.39281    
In61     In     0.712630000000     0.665480000000     0.750710000000     2.42014    
In62     In     0.839350000000     0.790460000000     0.875570000000     2.40012    
In63     In     0.973670000000     0.917600000000     0.764340000000     2.41208    
In64     In     0.600860000000     0.541650000000     0.888200000000     2.44235    
N1       N      0.537700000000     0.476640000000     0.307670000000    -0.173959   
N2       N      0.039120000000     0.981190000000     0.344480000000    -0.173174   
N3       N      0.392720000000     0.346150000000     0.313400000000    -0.17433    
N4       N      0.418920000000     0.363520000000     0.326770000000    -0.173062   
N5       N      0.162020000000     0.098150000000     0.337540000000    -0.172989   
N6       N      0.162730000000     0.099930000000     0.300420000000    -0.17419    
N7       N      0.259840000000     0.222300000000     0.317300000000    -0.174905   
N8       N      0.293830000000     0.228840000000     0.314150000000    -0.173351   
N9       N      0.409570000000     0.473690000000     0.215120000000    -0.174415   
N10      N      0.415050000000     0.984520000000     0.180620000000    -0.172943   
N11      N      0.272240000000     0.117070000000     0.186390000000    -0.174325   
N12      N      0.296930000000     0.097990000000     0.199850000000    -0.17527    
N13      N      0.167380000000     0.480300000000     0.470390000000    -0.174404   
N14      N      0.168460000000     0.987650000000     0.434260000000    -0.173459   
N15      N      0.282570000000     0.352610000000     0.425150000000    -0.174424   
N16      N      0.290510000000     0.363700000000     0.458990000000    -0.174486   
N17      N      0.284110000000     0.467590000000     0.580190000000    -0.172945   
N18      N      0.295410000000     0.996310000000     0.071230000000    -0.173503   
N19      N      0.530420000000     0.355480000000     0.215500000000    -0.174803   
N20      N      0.027050000000     0.348890000000     0.179300000000    -0.174407   
N21      N      0.151500000000     0.361440000000     0.087870000000    -0.172287   
N22      N      0.159570000000     0.361980000000     0.551710000000    -0.174249   
N23      N      0.156990000000     0.240320000000     0.176010000000    -0.175957   
N24      N      0.146860000000     0.219300000000     0.201400000000    -0.174775   
N25      N      0.538160000000     0.112100000000     0.463890000000    -0.17444    
N26      N      0.036990000000     0.102340000000     0.428540000000    -0.174011   
N27      N      0.413310000000     0.109150000000     0.551550000000    -0.173329   
N28      N      0.413350000000     0.105840000000     0.088610000000    -0.174212   
N29      N      0.387630000000     0.233820000000     0.441660000000    -0.174387   
N30      N      0.421240000000     0.226350000000     0.436740000000    -0.17507    
N31      N      0.513970000000     0.230880000000     0.567230000000    -0.173358   
N32      N      0.044390000000     0.244360000000     0.058590000000    -0.17344    
N33      N      0.537700000000     0.476640000000     0.807670000000    -0.174016   
N34      N      0.039120000000     0.981190000000     0.844470000000    -0.173072   
N35      N      0.392720000000     0.346150000000     0.813400000000    -0.174338   
N36      N      0.418920000000     0.363520000000     0.826770000000    -0.173056   
N37      N      0.162020000000     0.098150000000     0.837540000000    -0.172974   
N38      N      0.162730000000     0.099930000000     0.800420000000    -0.174207   
N39      N      0.259840000000     0.222310000000     0.817300000000    -0.174818   
N40      N      0.293830000000     0.228840000000     0.814150000000    -0.173395   
N41      N      0.409570000000     0.473690000000     0.715120000000    -0.174281   
N42      N      0.415050000000     0.984520000000     0.680620000000    -0.172996   
N43      N      0.272240000000     0.117070000000     0.686390000000    -0.174272   
N44      N      0.296930000000     0.097990000000     0.699850000000    -0.175339   
N45      N      0.167380000000     0.480290000000     0.970380000000    -0.174311   
N46      N      0.168460000000     0.987650000000     0.934260000000    -0.173455   
N47      N      0.282570000000     0.352610000000     0.925150000000    -0.174408   
N48      N      0.290500000000     0.363700000000     0.958990000000    -0.174503   
N49      N      0.284100000000     0.467590000000     0.080180000000    -0.172937   
N50      N      0.295410000000     0.996310000000     0.571230000000    -0.173491   
N51      N      0.530420000000     0.355480000000     0.715500000000    -0.174799   
N52      N      0.027050000000     0.348890000000     0.679300000000    -0.174333   
N53      N      0.151500000000     0.361430000000     0.587870000000    -0.172245   
N54      N      0.159570000000     0.361980000000     0.051710000000    -0.174311   
N55      N      0.156990000000     0.240310000000     0.676000000000    -0.175918   
N56      N      0.146860000000     0.219300000000     0.701390000000    -0.174676   
N57      N      0.538160000000     0.112100000000     0.963890000000    -0.174493   
N58      N      0.036990000000     0.102340000000     0.928540000000    -0.173997   
N59      N      0.413310000000     0.109150000000     0.051550000000    -0.173404   
N60      N      0.413350000000     0.105840000000     0.588610000000    -0.174172   
N61      N      0.387620000000     0.233820000000     0.941660000000    -0.174503   
N62      N      0.421240000000     0.226350000000     0.936740000000    -0.174999   
N63      N      0.513960000000     0.230880000000     0.067220000000    -0.173379   
N64      N      0.044380000000     0.244370000000     0.558590000000    -0.173505   
N65      N      0.537700000000     0.976640000000     0.307670000000    -0.173902   
N66      N      0.039120000000     0.481190000000     0.344480000000    -0.173698   
N67      N      0.392720000000     0.846150000000     0.313400000000    -0.174323   
N68      N      0.418920000000     0.863520000000     0.326760000000    -0.173024   
N69      N      0.162020000000     0.598150000000     0.337540000000    -0.172962   
N70      N      0.162730000000     0.599930000000     0.300420000000    -0.174173   
N71      N      0.259840000000     0.722310000000     0.317300000000    -0.174818   
N72      N      0.293830000000     0.728840000000     0.314150000000    -0.173354   
N73      N      0.409570000000     0.973690000000     0.215110000000    -0.174227   
N74      N      0.415050000000     0.484520000000     0.180620000000    -0.173533   
N75      N      0.272240000000     0.617070000000     0.186390000000    -0.174264   
N76      N      0.296930000000     0.597990000000     0.199850000000    -0.175252   
N77      N      0.167380000000     0.980290000000     0.470380000000    -0.174322   
N78      N      0.168460000000     0.487660000000     0.434260000000    -0.174067   
N79      N      0.282570000000     0.852610000000     0.425150000000    -0.174469   
N80      N      0.290510000000     0.863700000000     0.458990000000    -0.174521   
N81      N      0.284100000000     0.967590000000     0.580190000000    -0.17298    
N82      N      0.295410000000     0.496310000000     0.071230000000    -0.174528   
N83      N      0.530420000000     0.855480000000     0.215500000000    -0.174793   
N84      N      0.027050000000     0.848890000000     0.179300000000    -0.174329   
N85      N      0.151500000000     0.861440000000     0.087870000000    -0.172274   
N86      N      0.159570000000     0.861980000000     0.551700000000    -0.174387   
N87      N      0.156990000000     0.740320000000     0.176010000000    -0.175967   
N88      N      0.146860000000     0.719300000000     0.201390000000    -0.174701   
N89      N      0.538160000000     0.612100000000     0.463890000000    -0.174427   
N90      N      0.036990000000     0.602340000000     0.428540000000    -0.17394    
N91      N      0.413310000000     0.609150000000     0.551550000000    -0.17332    
N92      N      0.413350000000     0.605840000000     0.088610000000    -0.174198   
N93      N      0.387630000000     0.733820000000     0.441660000000    -0.174409   
N94      N      0.421240000000     0.726360000000     0.436740000000    -0.175018   
N95      N      0.513970000000     0.730880000000     0.567230000000    -0.173359   
N96      N      0.044390000000     0.744360000000     0.058590000000    -0.173446   
N97      N      0.537700000000     0.976640000000     0.807670000000    -0.173959   
N98      N      0.039120000000     0.481190000000     0.844470000000    -0.173597   
N99      N      0.392720000000     0.846150000000     0.813400000000    -0.174373   
N100     N      0.418920000000     0.863520000000     0.826770000000    -0.173043   
N101     N      0.162020000000     0.598150000000     0.837540000000    -0.172952   
N102     N      0.162730000000     0.599930000000     0.800420000000    -0.174209   
N103     N      0.259840000000     0.722310000000     0.817300000000    -0.174838   
N104     N      0.293830000000     0.728840000000     0.814150000000    -0.173352   
N105     N      0.409570000000     0.973690000000     0.715120000000    -0.17423    
N106     N      0.415050000000     0.484520000000     0.680620000000    -0.173535   
N107     N      0.272240000000     0.617070000000     0.686390000000    -0.174279   
N108     N      0.296940000000     0.597990000000     0.699850000000    -0.17535    
N109     N      0.167380000000     0.980290000000     0.970380000000    -0.174281   
N110     N      0.168460000000     0.487660000000     0.934260000000    -0.174013   
N111     N      0.282570000000     0.852610000000     0.925150000000    -0.174399   
N112     N      0.290500000000     0.863700000000     0.958990000000    -0.174528   
N113     N      0.284100000000     0.967590000000     0.080180000000    -0.172937   
N114     N      0.295410000000     0.496310000000     0.571230000000    -0.174477   
N115     N      0.530420000000     0.855480000000     0.715500000000    -0.174789   
N116     N      0.027050000000     0.848890000000     0.679300000000    -0.174288   
N117     N      0.151500000000     0.861440000000     0.587870000000    -0.172339   
N118     N      0.159570000000     0.861980000000     0.051710000000    -0.174354   
N119     N      0.156990000000     0.740310000000     0.676010000000    -0.175879   
N120     N      0.146860000000     0.719300000000     0.701390000000    -0.1747     
N121     N      0.538160000000     0.612100000000     0.963890000000    -0.174478   
N122     N      0.036990000000     0.602340000000     0.928540000000    -0.173974   
N123     N      0.413310000000     0.609150000000     0.051550000000    -0.173383   
N124     N      0.413350000000     0.605840000000     0.588610000000    -0.174113   
N125     N      0.387620000000     0.733820000000     0.941660000000    -0.174481   
N126     N      0.421240000000     0.726350000000     0.936740000000    -0.17505    
N127     N      0.513970000000     0.730880000000     0.067220000000    -0.173284   
N128     N      0.044380000000     0.744360000000     0.558590000000    -0.173387   
N129     N      0.037700000000     0.476640000000     0.307670000000    -0.174065   
N130     N      0.539120000000     0.981190000000     0.344480000000    -0.173184   
N131     N      0.892720000000     0.346150000000     0.313400000000    -0.174296   
N132     N      0.918920000000     0.363520000000     0.326770000000    -0.173101   
N133     N      0.662020000000     0.098150000000     0.337540000000    -0.173018   
N134     N      0.662740000000     0.099930000000     0.300420000000    -0.174234   
N135     N      0.759840000000     0.222300000000     0.317300000000    -0.174865   
N136     N      0.793830000000     0.228840000000     0.314150000000    -0.173311   
N137     N      0.909570000000     0.473690000000     0.215120000000    -0.174342   
N138     N      0.915050000000     0.984520000000     0.180620000000    -0.172996   
N139     N      0.772240000000     0.117070000000     0.186390000000    -0.174209   
N140     N      0.796930000000     0.097990000000     0.199850000000    -0.175306   
N141     N      0.667380000000     0.480290000000     0.470380000000    -0.174281   
N142     N      0.668460000000     0.987650000000     0.434260000000    -0.173467   
N143     N      0.782570000000     0.352610000000     0.425150000000    -0.174413   
N144     N      0.790500000000     0.363700000000     0.458980000000    -0.174375   
N145     N      0.784100000000     0.467590000000     0.580180000000    -0.172925   
N146     N      0.795410000000     0.996310000000     0.071230000000    -0.173498   
N147     N      0.030420000000     0.355480000000     0.215510000000    -0.174874   
N148     N      0.527050000000     0.348890000000     0.179300000000    -0.174305   
N149     N      0.651490000000     0.361430000000     0.087870000000    -0.172341   
N150     N      0.659570000000     0.361980000000     0.551710000000    -0.174243   
N151     N      0.656990000000     0.240310000000     0.176010000000    -0.175886   
N152     N      0.646860000000     0.219300000000     0.201390000000    -0.174705   
N153     N      0.038170000000     0.112100000000     0.463890000000    -0.174467   
N154     N      0.536990000000     0.102340000000     0.428540000000    -0.173985   
N155     N      0.913310000000     0.109150000000     0.551550000000    -0.173346   
N156     N      0.913350000000     0.105840000000     0.088610000000    -0.174176   
N157     N      0.887620000000     0.233820000000     0.441660000000    -0.174497   
N158     N      0.921240000000     0.226350000000     0.436740000000    -0.175023   
N159     N      0.013960000000     0.230880000000     0.567220000000    -0.173353   
N160     N      0.544380000000     0.244360000000     0.058590000000    -0.173461   
N161     N      0.037700000000     0.476640000000     0.807670000000    -0.173976   
N162     N      0.539120000000     0.981190000000     0.844480000000    -0.173145   
N163     N      0.892720000000     0.346150000000     0.813400000000    -0.174235   
N164     N      0.918920000000     0.363520000000     0.826770000000    -0.173071   
N165     N      0.662020000000     0.098150000000     0.837540000000    -0.173025   
N166     N      0.662740000000     0.099930000000     0.800420000000    -0.174193   
N167     N      0.759840000000     0.222300000000     0.817300000000    -0.174919   
N168     N      0.793830000000     0.228840000000     0.814150000000    -0.173351   
N169     N      0.909570000000     0.473690000000     0.715110000000    -0.174245   
N170     N      0.915050000000     0.984520000000     0.680620000000    -0.172983   
N171     N      0.772240000000     0.117070000000     0.686390000000    -0.174321   
N172     N      0.796930000000     0.097990000000     0.699850000000    -0.175254   
N173     N      0.667380000000     0.480290000000     0.970380000000    -0.174335   
N174     N      0.668460000000     0.987660000000     0.934260000000    -0.173517   
N175     N      0.782570000000     0.352610000000     0.925150000000    -0.17453    
N176     N      0.790500000000     0.363700000000     0.958990000000    -0.174451   
N177     N      0.784100000000     0.467590000000     0.080190000000    -0.172987   
N178     N      0.795410000000     0.996310000000     0.571230000000    -0.173484   
N179     N      0.030420000000     0.355480000000     0.715500000000    -0.174814   
N180     N      0.527050000000     0.348890000000     0.679300000000    -0.174402   
N181     N      0.651500000000     0.361440000000     0.587870000000    -0.172343   
N182     N      0.659560000000     0.361980000000     0.051710000000    -0.174216   
N183     N      0.656990000000     0.240320000000     0.676010000000    -0.175928   
N184     N      0.646860000000     0.219300000000     0.701390000000    -0.174703   
N185     N      0.038170000000     0.112100000000     0.963890000000    -0.17447    
N186     N      0.536990000000     0.102340000000     0.928540000000    -0.174059   
N187     N      0.913310000000     0.109150000000     0.051560000000    -0.173204   
N188     N      0.913350000000     0.105840000000     0.588610000000    -0.174236   
N189     N      0.887630000000     0.233820000000     0.941660000000    -0.174365   
N190     N      0.921240000000     0.226350000000     0.936740000000    -0.175048   
N191     N      0.013970000000     0.230880000000     0.067220000000    -0.173279   
N192     N      0.544390000000     0.244360000000     0.558590000000    -0.173445   
N193     N      0.037700000000     0.976640000000     0.307670000000    -0.173913   
N194     N      0.539120000000     0.481190000000     0.344480000000    -0.173707   
N195     N      0.892720000000     0.846150000000     0.313400000000    -0.174278   
N196     N      0.918920000000     0.863520000000     0.326760000000    -0.173068   
N197     N      0.662020000000     0.598150000000     0.337540000000    -0.172995   
N198     N      0.662730000000     0.599930000000     0.300420000000    -0.174206   
N199     N      0.759840000000     0.722310000000     0.317300000000    -0.174825   
N200     N      0.793830000000     0.728840000000     0.314150000000    -0.173288   
N201     N      0.909570000000     0.973690000000     0.215120000000    -0.17429    
N202     N      0.915050000000     0.484520000000     0.180620000000    -0.173537   
N203     N      0.772240000000     0.617070000000     0.186390000000    -0.174193   
N204     N      0.796930000000     0.597990000000     0.199850000000    -0.175284   
N205     N      0.667380000000     0.980290000000     0.470380000000    -0.17428    
N206     N      0.668460000000     0.487660000000     0.434260000000    -0.174031   
N207     N      0.782570000000     0.852610000000     0.425150000000    -0.174393   
N208     N      0.790500000000     0.863700000000     0.458980000000    -0.174418   
N209     N      0.784100000000     0.967590000000     0.580180000000    -0.172973   
N210     N      0.795410000000     0.496310000000     0.071230000000    -0.174532   
N211     N      0.030420000000     0.855480000000     0.215500000000    -0.174805   
N212     N      0.527050000000     0.848890000000     0.179300000000    -0.174299   
N213     N      0.651500000000     0.861440000000     0.087870000000    -0.172286   
N214     N      0.659570000000     0.861980000000     0.551700000000    -0.174445   
N215     N      0.656990000000     0.740310000000     0.176010000000    -0.175844   
N216     N      0.646860000000     0.719300000000     0.201390000000    -0.174668   
N217     N      0.038170000000     0.612100000000     0.463890000000    -0.174453   
N218     N      0.536990000000     0.602340000000     0.428540000000    -0.173915   
N219     N      0.913310000000     0.609150000000     0.551550000000    -0.173331   
N220     N      0.913350000000     0.605840000000     0.088610000000    -0.174197   
N221     N      0.887620000000     0.733820000000     0.441660000000    -0.174498   
N222     N      0.921240000000     0.726350000000     0.436740000000    -0.17497    
N223     N      0.013960000000     0.730880000000     0.567220000000    -0.173346   
N224     N      0.544380000000     0.744360000000     0.058590000000    -0.173395   
N225     N      0.037700000000     0.976640000000     0.807670000000    -0.173918   
N226     N      0.539120000000     0.481190000000     0.844480000000    -0.173668   
N227     N      0.892720000000     0.846150000000     0.813400000000    -0.174238   
N228     N      0.918920000000     0.863520000000     0.826770000000    -0.173062   
N229     N      0.662020000000     0.598150000000     0.837540000000    -0.173      
N230     N      0.662740000000     0.599930000000     0.800420000000    -0.174176   
N231     N      0.759840000000     0.722300000000     0.817300000000    -0.174915   
N232     N      0.793830000000     0.728840000000     0.814150000000    -0.173347   
N233     N      0.909570000000     0.973690000000     0.715110000000    -0.17427    
N234     N      0.915050000000     0.484520000000     0.680620000000    -0.173525   
N235     N      0.772240000000     0.617070000000     0.686390000000    -0.1743     
N236     N      0.796930000000     0.597990000000     0.699850000000    -0.175312   
N237     N      0.667380000000     0.980290000000     0.970380000000    -0.174275   
N238     N      0.668460000000     0.487660000000     0.934260000000    -0.174044   
N239     N      0.782570000000     0.852610000000     0.925150000000    -0.174542   
N240     N      0.790500000000     0.863700000000     0.958990000000    -0.174523   
N241     N      0.784100000000     0.967590000000     0.080190000000    -0.173022   
N242     N      0.795410000000     0.496310000000     0.571230000000    -0.174473   
N243     N      0.030420000000     0.855480000000     0.715500000000    -0.174803   
N244     N      0.527050000000     0.848890000000     0.679300000000    -0.174397   
N245     N      0.651500000000     0.861440000000     0.587870000000    -0.172283   
N246     N      0.659570000000     0.861980000000     0.051710000000    -0.174296   
N247     N      0.656990000000     0.740320000000     0.676010000000    -0.175946   
N248     N      0.646860000000     0.719300000000     0.701390000000    -0.1747     
N249     N      0.038170000000     0.612100000000     0.963890000000    -0.174457   
N250     N      0.536990000000     0.602340000000     0.928540000000    -0.174037   
N251     N      0.913310000000     0.609150000000     0.051560000000    -0.173209   
N252     N      0.913350000000     0.605840000000     0.588610000000    -0.174213   
N253     N      0.887620000000     0.733820000000     0.941660000000    -0.174526   
N254     N      0.921240000000     0.726350000000     0.936740000000    -0.175045   
N255     N      0.013970000000     0.730870000000     0.067220000000    -0.173338   
N256     N      0.544390000000     0.744360000000     0.558590000000    -0.173391   
O1       O      0.492410000000     0.142170000000     0.458240000000    -0.487981   
O2       O      0.516880000000     0.141160000000     0.508050000000    -0.49183    
O3       O      0.512550000000     0.202520000000     0.516820000000    -0.489296   
O4       O      0.467380000000     0.200710000000     0.454250000000    -0.491864   
O5       O      0.431890000000     0.133430000000     0.502220000000    -0.492583   
O6       O      0.423800000000     0.195350000000     0.485110000000    -0.490591   
O7       O      0.471730000000     0.199430000000     0.552370000000    -0.484214   
O8       O      0.451270000000     0.147110000000     0.552070000000    -0.480646   
O9       O      0.144390000000     0.277110000000     0.136880000000    -0.503703   
O10      O      0.104920000000     0.259960000000     0.167950000000    -0.491004   
O11      O      0.116360000000     0.321720000000     0.081770000000    -0.478415   
O12      O      0.086930000000     0.275330000000     0.073760000000    -0.482736   
O13      O      0.072110000000     0.317630000000     0.178150000000    -0.490705   
O14      O      0.050990000000     0.265540000000     0.113320000000    -0.493372   
O15      O      0.125510000000     0.338280000000     0.133820000000    -0.492145   
O16      O      0.047580000000     0.326880000000     0.129450000000    -0.499604   
O17      O      0.254320000000     0.425970000000     0.565860000000    -0.477868   
O18      O      0.260260000000     0.459200000000     0.525890000000    -0.493794   
O19      O      0.244680000000     0.394040000000     0.462700000000    -0.479156   
O20      O      0.190290000000     0.381400000000     0.506720000000    -0.498874   
O21      O      0.212340000000     0.448860000000     0.467580000000    -0.484441   
O22      O      0.199260000000     0.397950000000     0.558560000000    -0.481408   
O23      O      0.275660000000     0.390570000000     0.507880000000    -0.497482   
O24      O      0.185580000000     0.451460000000     0.516050000000    -0.499333   
O25      O      0.338660000000     0.064570000000     0.190180000000    -0.484859   
O26      O      0.310310000000     0.078010000000     0.145750000000    -0.492895   
O27      O      0.377010000000     0.066680000000     0.087640000000    -0.479437   
O28      O      0.368230000000     0.013570000000     0.180520000000    -0.478064   
O29      O      0.322060000000     0.004090000000     0.124160000000    -0.489741   
O30      O      0.399900000000     0.015880000000     0.135580000000    -0.491524   
O31      O      0.391940000000     0.083300000000     0.137850000000    -0.493116   
O32      O      0.324660000000     0.038170000000     0.085250000000    -0.478742   
O33      O      0.258970000000     0.190590000000     0.269530000000    -0.490678   
O34      O      0.214100000000     0.197220000000     0.297900000000    -0.491223   
O35      O      0.199760000000     0.202720000000     0.211910000000    -0.492147   
O36      O      0.230850000000     0.150950000000     0.196150000000    -0.490387   
O37      O      0.198280000000     0.139720000000     0.300110000000    -0.491004   
O38      O      0.255380000000     0.132980000000     0.241240000000    -0.491201   
O39      O      0.160170000000     0.181920000000     0.239750000000    -0.491912   
O40      O      0.179110000000     0.124640000000     0.250720000000    -0.492458   
O41      O      0.341380000000     0.259000000000     0.423260000000    -0.492906   
O42      O      0.386010000000     0.266160000000     0.394540000000    -0.485072   
O43      O      0.293690000000     0.263530000000     0.358950000000    -0.480479   
O44      O      0.293960000000     0.321060000000     0.379130000000    -0.486451   
O45      O      0.381890000000     0.323390000000     0.366580000000    -0.486379   
O46      O      0.327590000000     0.321270000000     0.422380000000    -0.487791   
O47      O      0.339170000000     0.255280000000     0.332070000000    -0.488504   
O48      O      0.350790000000     0.312970000000     0.322890000000    -0.489669   
O49      O      0.515550000000     0.451820000000     0.260500000000    -0.495741   
O50      O      0.494970000000     0.443140000000     0.311240000000    -0.479361   
O51      O      0.427000000000     0.446500000000     0.262720000000    -0.497722   
O52      O      0.487710000000     0.389350000000     0.216130000000    -0.486002   
O53      O      0.459720000000     0.397950000000     0.317760000000    -0.478584   
O54      O      0.515480000000     0.383370000000     0.263370000000    -0.500859   
O55      O      0.456160000000     0.444220000000     0.215990000000    -0.481801   
O56      O      0.432480000000     0.383340000000     0.272640000000    -0.491026   
O57      O      0.061810000000     0.005100000000     0.391990000000    -0.503197   
O58      O      0.079040000000     0.017440000000     0.340710000000    -0.482762   
O59      O      0.080030000000     0.069010000000     0.434430000000    -0.483629   
O60      O      0.122670000000     0.018170000000     0.436660000000    -0.486054   
O61      O      0.122200000000     0.061750000000     0.338090000000    -0.482905   
O62      O      0.145640000000     0.010990000000     0.386610000000    -0.5039     
O63      O      0.057970000000     0.074230000000     0.383600000000    -0.504763   
O64      O      0.139920000000     0.078100000000     0.387660000000    -0.50214    
O65      O      0.492410000000     0.142170000000     0.958240000000    -0.488055   
O66      O      0.516870000000     0.141160000000     0.008050000000    -0.492169   
O67      O      0.512550000000     0.202520000000     0.016820000000    -0.489248   
O68      O      0.467380000000     0.200710000000     0.954250000000    -0.49188    
O69      O      0.431880000000     0.133430000000     0.002220000000    -0.492625   
O70      O      0.423800000000     0.195350000000     0.985110000000    -0.490408   
O71      O      0.471720000000     0.199430000000     0.052370000000    -0.48394    
O72      O      0.451260000000     0.147110000000     0.052060000000    -0.480702   
O73      O      0.144390000000     0.277100000000     0.636870000000    -0.503624   
O74      O      0.104920000000     0.259960000000     0.667950000000    -0.490975   
O75      O      0.116360000000     0.321720000000     0.581770000000    -0.478474   
O76      O      0.086920000000     0.275330000000     0.573750000000    -0.482507   
O77      O      0.072110000000     0.317630000000     0.678150000000    -0.49059    
O78      O      0.050980000000     0.265540000000     0.613320000000    -0.493111   
O79      O      0.125510000000     0.338280000000     0.633820000000    -0.492155   
O80      O      0.047580000000     0.326880000000     0.629440000000    -0.499369   
O81      O      0.254320000000     0.425970000000     0.065860000000    -0.47777    
O82      O      0.260250000000     0.459200000000     0.025890000000    -0.493802   
O83      O      0.244670000000     0.394040000000     0.962700000000    -0.479077   
O84      O      0.190290000000     0.381400000000     0.006720000000    -0.499101   
O85      O      0.212340000000     0.448860000000     0.967570000000    -0.484361   
O86      O      0.199260000000     0.397950000000     0.058550000000    -0.481588   
O87      O      0.275660000000     0.390570000000     0.007880000000    -0.497527   
O88      O      0.185570000000     0.451460000000     0.016040000000    -0.499607   
O89      O      0.338660000000     0.064570000000     0.690180000000    -0.484883   
O90      O      0.310310000000     0.078010000000     0.645750000000    -0.492913   
O91      O      0.377010000000     0.066680000000     0.587640000000    -0.47935    
O92      O      0.368240000000     0.013570000000     0.680520000000    -0.478185   
O93      O      0.322070000000     0.004090000000     0.624160000000    -0.489782   
O94      O      0.399900000000     0.015880000000     0.635580000000    -0.491577   
O95      O      0.391940000000     0.083300000000     0.637850000000    -0.493225   
O96      O      0.324670000000     0.038170000000     0.585250000000    -0.478737   
O97      O      0.258970000000     0.190590000000     0.769530000000    -0.490718   
O98      O      0.214100000000     0.197220000000     0.797900000000    -0.49117    
O99      O      0.199760000000     0.202720000000     0.711900000000    -0.491965   
O100     O      0.230850000000     0.150950000000     0.696140000000    -0.490133   
O101     O      0.198280000000     0.139710000000     0.800100000000    -0.491165   
O102     O      0.255380000000     0.132980000000     0.741240000000    -0.491122   
O103     O      0.160170000000     0.181920000000     0.739750000000    -0.491835   
O104     O      0.179100000000     0.124640000000     0.750720000000    -0.492512   
O105     O      0.341380000000     0.259000000000     0.923250000000    -0.493038   
O106     O      0.386010000000     0.266150000000     0.894530000000    -0.484997   
O107     O      0.293690000000     0.263530000000     0.858950000000    -0.480517   
O108     O      0.293960000000     0.321060000000     0.879130000000    -0.486574   
O109     O      0.381890000000     0.323390000000     0.866570000000    -0.486362   
O110     O      0.327590000000     0.321270000000     0.922380000000    -0.487812   
O111     O      0.339170000000     0.255280000000     0.832070000000    -0.488495   
O112     O      0.350780000000     0.312970000000     0.822890000000    -0.489616   
O113     O      0.515550000000     0.451820000000     0.760510000000    -0.495933   
O114     O      0.494970000000     0.443140000000     0.811240000000    -0.479424   
O115     O      0.427000000000     0.446500000000     0.762730000000    -0.497643   
O116     O      0.487710000000     0.389350000000     0.716130000000    -0.486005   
O117     O      0.459720000000     0.397950000000     0.817760000000    -0.478564   
O118     O      0.515480000000     0.383370000000     0.763370000000    -0.500851   
O119     O      0.456160000000     0.444220000000     0.715990000000    -0.481679   
O120     O      0.432480000000     0.383340000000     0.772640000000    -0.491024   
O121     O      0.061810000000     0.005100000000     0.891990000000    -0.503012   
O122     O      0.079040000000     0.017440000000     0.840710000000    -0.482775   
O123     O      0.080030000000     0.069010000000     0.934430000000    -0.483577   
O124     O      0.122670000000     0.018170000000     0.936660000000    -0.485812   
O125     O      0.122200000000     0.061750000000     0.838090000000    -0.483091   
O126     O      0.145640000000     0.010990000000     0.886610000000    -0.503782   
O127     O      0.057970000000     0.074240000000     0.883600000000    -0.504815   
O128     O      0.139920000000     0.078100000000     0.887660000000    -0.502229   
O129     O      0.492410000000     0.642170000000     0.458240000000    -0.487953   
O130     O      0.516880000000     0.641160000000     0.508050000000    -0.491794   
O131     O      0.512550000000     0.702520000000     0.516820000000    -0.489291   
O132     O      0.467380000000     0.700710000000     0.454250000000    -0.491842   
O133     O      0.431890000000     0.633430000000     0.502220000000    -0.492543   
O134     O      0.423800000000     0.695350000000     0.485110000000    -0.490477   
O135     O      0.471730000000     0.699430000000     0.552370000000    -0.484208   
O136     O      0.451270000000     0.647110000000     0.552070000000    -0.48063    
O137     O      0.144390000000     0.777100000000     0.136880000000    -0.503749   
O138     O      0.104920000000     0.759960000000     0.167950000000    -0.491031   
O139     O      0.116360000000     0.821720000000     0.081770000000    -0.478403   
O140     O      0.086930000000     0.775330000000     0.073750000000    -0.482415   
O141     O      0.072110000000     0.817630000000     0.178150000000    -0.490589   
O142     O      0.050990000000     0.765540000000     0.113320000000    -0.493347   
O143     O      0.125510000000     0.838280000000     0.133820000000    -0.492106   
O144     O      0.047580000000     0.826880000000     0.129440000000    -0.499379   
O145     O      0.254320000000     0.925970000000     0.565860000000    -0.477783   
O146     O      0.260260000000     0.959190000000     0.525890000000    -0.493818   
O147     O      0.244680000000     0.894040000000     0.462700000000    -0.479202   
O148     O      0.190290000000     0.881400000000     0.506720000000    -0.498922   
O149     O      0.212340000000     0.948860000000     0.467580000000    -0.484521   
O150     O      0.199260000000     0.897950000000     0.558560000000    -0.481224   
O151     O      0.275660000000     0.890570000000     0.507880000000    -0.497429   
O152     O      0.185580000000     0.951460000000     0.516050000000    -0.49913    
O153     O      0.338660000000     0.564570000000     0.190180000000    -0.484778   
O154     O      0.310310000000     0.578010000000     0.145750000000    -0.492879   
O155     O      0.377010000000     0.566680000000     0.087640000000    -0.479296   
O156     O      0.368240000000     0.513570000000     0.180520000000    -0.478092   
O157     O      0.322070000000     0.504090000000     0.124160000000    -0.489658   
O158     O      0.399900000000     0.515880000000     0.135580000000    -0.491539   
O159     O      0.391940000000     0.583300000000     0.137850000000    -0.493195   
O160     O      0.324670000000     0.538170000000     0.085250000000    -0.478882   
O161     O      0.258970000000     0.690590000000     0.269530000000    -0.490718   
O162     O      0.214100000000     0.697220000000     0.297900000000    -0.491172   
O163     O      0.199760000000     0.702720000000     0.211910000000    -0.492121   
O164     O      0.230850000000     0.650950000000     0.196140000000    -0.490133   
O165     O      0.198280000000     0.639720000000     0.300110000000    -0.490959   
O166     O      0.255380000000     0.632980000000     0.241240000000    -0.491102   
O167     O      0.160170000000     0.681920000000     0.239750000000    -0.491864   
O168     O      0.179110000000     0.624640000000     0.250720000000    -0.49239    
O169     O      0.341380000000     0.759000000000     0.423250000000    -0.493044   
O170     O      0.386010000000     0.766160000000     0.394540000000    -0.485082   
O171     O      0.293690000000     0.763530000000     0.358950000000    -0.480464   
O172     O      0.293960000000     0.821060000000     0.379130000000    -0.486447   
O173     O      0.381890000000     0.823390000000     0.366570000000    -0.486474   
O174     O      0.327590000000     0.821270000000     0.422380000000    -0.487781   
O175     O      0.339170000000     0.755280000000     0.332070000000    -0.4885     
O176     O      0.350790000000     0.812970000000     0.322880000000    -0.489521   
O177     O      0.515550000000     0.951820000000     0.260500000000    -0.495632   
O178     O      0.494970000000     0.943140000000     0.311240000000    -0.479272   
O179     O      0.427000000000     0.946500000000     0.262720000000    -0.497548   
O180     O      0.487710000000     0.889350000000     0.216130000000    -0.485965   
O181     O      0.459720000000     0.897950000000     0.317760000000    -0.478532   
O182     O      0.515480000000     0.883370000000     0.263370000000    -0.500818   
O183     O      0.456160000000     0.944220000000     0.215980000000    -0.481482   
O184     O      0.432480000000     0.883340000000     0.272640000000    -0.491003   
O185     O      0.061810000000     0.505100000000     0.391990000000    -0.503102   
O186     O      0.079040000000     0.517440000000     0.340710000000    -0.482687   
O187     O      0.080030000000     0.569010000000     0.434430000000    -0.483547   
O188     O      0.122670000000     0.518170000000     0.436660000000    -0.486028   
O189     O      0.122200000000     0.561750000000     0.338090000000    -0.482802   
O190     O      0.145640000000     0.510990000000     0.386610000000    -0.503729   
O191     O      0.057970000000     0.574240000000     0.383600000000    -0.504623   
O192     O      0.139920000000     0.578100000000     0.387660000000    -0.502083   
O193     O      0.492410000000     0.642170000000     0.958240000000    -0.488025   
O194     O      0.516870000000     0.641160000000     0.008050000000    -0.492131   
O195     O      0.512550000000     0.702520000000     0.016820000000    -0.489224   
O196     O      0.467380000000     0.700710000000     0.954250000000    -0.491842   
O197     O      0.431880000000     0.633430000000     0.002220000000    -0.492575   
O198     O      0.423800000000     0.695350000000     0.985110000000    -0.490345   
O199     O      0.471720000000     0.699430000000     0.052370000000    -0.48392    
O200     O      0.451260000000     0.647110000000     0.052060000000    -0.480681   
O201     O      0.144390000000     0.777100000000     0.636880000000    -0.503712   
O202     O      0.104920000000     0.759960000000     0.667950000000    -0.491017   
O203     O      0.116360000000     0.821720000000     0.581770000000    -0.478365   
O204     O      0.086930000000     0.775330000000     0.573750000000    -0.482483   
O205     O      0.072110000000     0.817630000000     0.678150000000    -0.490529   
O206     O      0.050980000000     0.765540000000     0.613310000000    -0.493173   
O207     O      0.125500000000     0.838280000000     0.633820000000    -0.492172   
O208     O      0.047580000000     0.826880000000     0.629440000000    -0.499459   
O209     O      0.254320000000     0.925970000000     0.065860000000    -0.477639   
O210     O      0.260250000000     0.959200000000     0.025890000000    -0.493639   
O211     O      0.244670000000     0.894040000000     0.962700000000    -0.479082   
O212     O      0.190290000000     0.881400000000     0.006720000000    -0.499083   
O213     O      0.212340000000     0.948860000000     0.967570000000    -0.484321   
O214     O      0.199260000000     0.897950000000     0.058550000000    -0.48148    
O215     O      0.275660000000     0.890570000000     0.007880000000    -0.497398   
O216     O      0.185570000000     0.951460000000     0.016040000000    -0.499403   
O217     O      0.338660000000     0.564570000000     0.690180000000    -0.484886   
O218     O      0.310310000000     0.578010000000     0.645750000000    -0.492878   
O219     O      0.377010000000     0.566680000000     0.587640000000    -0.479275   
O220     O      0.368240000000     0.513570000000     0.680520000000    -0.478072   
O221     O      0.322070000000     0.504090000000     0.624170000000    -0.489517   
O222     O      0.399900000000     0.515880000000     0.635580000000    -0.491525   
O223     O      0.391940000000     0.583300000000     0.637850000000    -0.493182   
O224     O      0.324670000000     0.538170000000     0.585250000000    -0.478789   
O225     O      0.258970000000     0.690590000000     0.769530000000    -0.490731   
O226     O      0.214100000000     0.697220000000     0.797900000000    -0.491188   
O227     O      0.199760000000     0.702720000000     0.711900000000    -0.492037   
O228     O      0.230850000000     0.650950000000     0.696140000000    -0.490247   
O229     O      0.198270000000     0.639720000000     0.800100000000    -0.491204   
O230     O      0.255380000000     0.632990000000     0.741240000000    -0.491131   
O231     O      0.160170000000     0.681920000000     0.739740000000    -0.491934   
O232     O      0.179110000000     0.624640000000     0.750720000000    -0.492583   
O233     O      0.341380000000     0.759000000000     0.923250000000    -0.493093   
O234     O      0.386010000000     0.766150000000     0.894540000000    -0.485079   
O235     O      0.293690000000     0.763530000000     0.858950000000    -0.480587   
O236     O      0.293960000000     0.821060000000     0.879130000000    -0.486566   
O237     O      0.381890000000     0.823390000000     0.866570000000    -0.486414   
O238     O      0.327590000000     0.821270000000     0.922380000000    -0.487805   
O239     O      0.339170000000     0.755290000000     0.832070000000    -0.488575   
O240     O      0.350790000000     0.812970000000     0.822890000000    -0.4897     
O241     O      0.515550000000     0.951820000000     0.760510000000    -0.495827   
O242     O      0.494970000000     0.943140000000     0.811240000000    -0.479351   
O243     O      0.427000000000     0.946500000000     0.762730000000    -0.497545   
O244     O      0.487710000000     0.889350000000     0.716130000000    -0.485975   
O245     O      0.459720000000     0.897950000000     0.817760000000    -0.478518   
O246     O      0.515480000000     0.883370000000     0.763370000000    -0.500829   
O247     O      0.456160000000     0.944220000000     0.715990000000    -0.481607   
O248     O      0.432480000000     0.883340000000     0.772640000000    -0.491009   
O249     O      0.061810000000     0.505100000000     0.891990000000    -0.50306    
O250     O      0.079040000000     0.517440000000     0.840710000000    -0.48266    
O251     O      0.080030000000     0.569010000000     0.934430000000    -0.483519   
O252     O      0.122670000000     0.518170000000     0.936660000000    -0.485942   
O253     O      0.122200000000     0.561750000000     0.838090000000    -0.482797   
O254     O      0.145640000000     0.510990000000     0.886610000000    -0.503822   
O255     O      0.057970000000     0.574240000000     0.883600000000    -0.504619   
O256     O      0.139920000000     0.578100000000     0.887660000000    -0.50206    
O257     O      0.992410000000     0.142170000000     0.458240000000    -0.488223   
O258     O      0.016870000000     0.141160000000     0.508050000000    -0.491931   
O259     O      0.012550000000     0.202520000000     0.516820000000    -0.489141   
O260     O      0.967380000000     0.200710000000     0.454250000000    -0.492052   
O261     O      0.931880000000     0.133430000000     0.502220000000    -0.492568   
O262     O      0.923800000000     0.195350000000     0.485110000000    -0.490595   
O263     O      0.971730000000     0.199430000000     0.552370000000    -0.484077   
O264     O      0.951260000000     0.147110000000     0.552060000000    -0.480808   
O265     O      0.644390000000     0.277100000000     0.136880000000    -0.503749   
O266     O      0.604920000000     0.259960000000     0.167950000000    -0.491037   
O267     O      0.616360000000     0.321720000000     0.081770000000    -0.478533   
O268     O      0.586930000000     0.275330000000     0.073750000000    -0.482499   
O269     O      0.572110000000     0.317630000000     0.178150000000    -0.490559   
O270     O      0.550990000000     0.265540000000     0.113310000000    -0.493381   
O271     O      0.625500000000     0.338280000000     0.133820000000    -0.492273   
O272     O      0.547580000000     0.326880000000     0.129440000000    -0.499516   
O273     O      0.754320000000     0.425970000000     0.565860000000    -0.47779    
O274     O      0.760260000000     0.459200000000     0.525890000000    -0.493665   
O275     O      0.744680000000     0.394040000000     0.462700000000    -0.479311   
O276     O      0.690290000000     0.381400000000     0.506720000000    -0.498988   
O277     O      0.712340000000     0.448860000000     0.467570000000    -0.484405   
O278     O      0.699260000000     0.397950000000     0.558560000000    -0.481355   
O279     O      0.775660000000     0.390570000000     0.507880000000    -0.497327   
O280     O      0.685580000000     0.451460000000     0.516050000000    -0.499272   
O281     O      0.838670000000     0.064570000000     0.190180000000    -0.484774   
O282     O      0.810310000000     0.078010000000     0.145750000000    -0.492853   
O283     O      0.877010000000     0.066680000000     0.087640000000    -0.479366   
O284     O      0.868240000000     0.013570000000     0.180520000000    -0.478186   
O285     O      0.822060000000     0.004090000000     0.124160000000    -0.489745   
O286     O      0.899900000000     0.015880000000     0.135580000000    -0.491601   
O287     O      0.891940000000     0.083300000000     0.137850000000    -0.493216   
O288     O      0.824670000000     0.038170000000     0.085250000000    -0.478771   
O289     O      0.758970000000     0.190590000000     0.269530000000    -0.490757   
O290     O      0.714100000000     0.197220000000     0.297900000000    -0.491207   
O291     O      0.699760000000     0.202720000000     0.211900000000    -0.492035   
O292     O      0.730850000000     0.150950000000     0.196140000000    -0.490142   
O293     O      0.698270000000     0.139720000000     0.300100000000    -0.491232   
O294     O      0.755380000000     0.132980000000     0.241240000000    -0.491138   
O295     O      0.660170000000     0.181920000000     0.239740000000    -0.491944   
O296     O      0.679110000000     0.124640000000     0.250720000000    -0.492651   
O297     O      0.841380000000     0.259000000000     0.423250000000    -0.493091   
O298     O      0.886010000000     0.266150000000     0.394540000000    -0.485212   
O299     O      0.793690000000     0.263530000000     0.358950000000    -0.480454   
O300     O      0.793960000000     0.321060000000     0.379130000000    -0.48644    
O301     O      0.881890000000     0.323390000000     0.366570000000    -0.486445   
O302     O      0.827590000000     0.321270000000     0.422380000000    -0.487791   
O303     O      0.839170000000     0.255280000000     0.332070000000    -0.488497   
O304     O      0.850780000000     0.312970000000     0.322880000000    -0.489414   
O305     O      0.015550000000     0.451820000000     0.260510000000    -0.495802   
O306     O      0.994970000000     0.443140000000     0.311240000000    -0.479607   
O307     O      0.927000000000     0.446500000000     0.262720000000    -0.497806   
O308     O      0.987710000000     0.389350000000     0.216130000000    -0.486091   
O309     O      0.959710000000     0.397950000000     0.317760000000    -0.478684   
O310     O      0.015480000000     0.383370000000     0.263370000000    -0.500954   
O311     O      0.956160000000     0.444220000000     0.215990000000    -0.48177    
O312     O      0.932480000000     0.383340000000     0.272640000000    -0.491078   
O313     O      0.561810000000     0.005100000000     0.391990000000    -0.503079   
O314     O      0.579040000000     0.017440000000     0.340710000000    -0.482679   
O315     O      0.580030000000     0.069010000000     0.434430000000    -0.483671   
O316     O      0.622670000000     0.018170000000     0.436660000000    -0.48597    
O317     O      0.622200000000     0.061750000000     0.338090000000    -0.482964   
O318     O      0.645640000000     0.010990000000     0.386610000000    -0.503773   
O319     O      0.557970000000     0.074240000000     0.383600000000    -0.504911   
O320     O      0.639920000000     0.078100000000     0.387660000000    -0.502261   
O321     O      0.992410000000     0.142170000000     0.958240000000    -0.488161   
O322     O      0.016880000000     0.141160000000     0.008050000000    -0.492074   
O323     O      0.012550000000     0.202520000000     0.016820000000    -0.489249   
O324     O      0.967380000000     0.200710000000     0.954250000000    -0.491845   
O325     O      0.931890000000     0.133430000000     0.002220000000    -0.492513   
O326     O      0.923800000000     0.195350000000     0.985110000000    -0.4902     
O327     O      0.971730000000     0.199430000000     0.052370000000    -0.484047   
O328     O      0.951270000000     0.147110000000     0.052070000000    -0.480425   
O329     O      0.644390000000     0.277110000000     0.636880000000    -0.503708   
O330     O      0.604920000000     0.259960000000     0.667950000000    -0.491017   
O331     O      0.616360000000     0.321720000000     0.581770000000    -0.478402   
O332     O      0.586930000000     0.275330000000     0.573760000000    -0.482728   
O333     O      0.572110000000     0.317630000000     0.678150000000    -0.490706   
O334     O      0.550990000000     0.265540000000     0.613320000000    -0.493394   
O335     O      0.625500000000     0.338280000000     0.633820000000    -0.49223    
O336     O      0.547580000000     0.326880000000     0.629450000000    -0.499605   
O337     O      0.754320000000     0.425970000000     0.065860000000    -0.477931   
O338     O      0.760260000000     0.459190000000     0.025890000000    -0.493956   
O339     O      0.744680000000     0.394040000000     0.962700000000    -0.479003   
O340     O      0.690290000000     0.381400000000     0.006720000000    -0.499024   
O341     O      0.712340000000     0.448860000000     0.967570000000    -0.4842     
O342     O      0.699260000000     0.397950000000     0.058560000000    -0.48144    
O343     O      0.775660000000     0.390570000000     0.007890000000    -0.497409   
O344     O      0.685580000000     0.451460000000     0.016050000000    -0.499618   
O345     O      0.838660000000     0.064560000000     0.690180000000    -0.484889   
O346     O      0.810310000000     0.078010000000     0.645750000000    -0.492861   
O347     O      0.877010000000     0.066680000000     0.587640000000    -0.479382   
O348     O      0.868240000000     0.013570000000     0.680520000000    -0.478175   
O349     O      0.822060000000     0.004090000000     0.624160000000    -0.489763   
O350     O      0.899900000000     0.015880000000     0.635580000000    -0.4916     
O351     O      0.891930000000     0.083300000000     0.637850000000    -0.49334    
O352     O      0.824660000000     0.038170000000     0.585250000000    -0.478735   
O353     O      0.758970000000     0.190590000000     0.769530000000    -0.490839   
O354     O      0.714110000000     0.197220000000     0.797900000000    -0.491402   
O355     O      0.699760000000     0.202720000000     0.711910000000    -0.492125   
O356     O      0.730850000000     0.150950000000     0.696150000000    -0.490379   
O357     O      0.698280000000     0.139720000000     0.800110000000    -0.491003   
O358     O      0.755380000000     0.132980000000     0.741240000000    -0.491192   
O359     O      0.660170000000     0.181920000000     0.739750000000    -0.491906   
O360     O      0.679110000000     0.124640000000     0.750720000000    -0.492473   
O361     O      0.841380000000     0.259000000000     0.923250000000    -0.493014   
O362     O      0.886010000000     0.266160000000     0.894540000000    -0.485193   
O363     O      0.793690000000     0.263530000000     0.858950000000    -0.480453   
O364     O      0.793960000000     0.321060000000     0.879140000000    -0.486595   
O365     O      0.881890000000     0.323400000000     0.866580000000    -0.486327   
O366     O      0.827590000000     0.321270000000     0.922380000000    -0.487834   
O367     O      0.839170000000     0.255280000000     0.832070000000    -0.488514   
O368     O      0.850780000000     0.312970000000     0.822890000000    -0.489537   
O369     O      0.015540000000     0.451820000000     0.760500000000    -0.495842   
O370     O      0.994970000000     0.443140000000     0.811240000000    -0.479472   
O371     O      0.927000000000     0.446500000000     0.762720000000    -0.497794   
O372     O      0.987710000000     0.389350000000     0.716130000000    -0.486114   
O373     O      0.959720000000     0.397950000000     0.817760000000    -0.478591   
O374     O      0.015480000000     0.383370000000     0.763370000000    -0.500832   
O375     O      0.956160000000     0.444220000000     0.715990000000    -0.481732   
O376     O      0.932480000000     0.383340000000     0.772640000000    -0.491032   
O377     O      0.561810000000     0.005100000000     0.891990000000    -0.503159   
O378     O      0.579040000000     0.017440000000     0.840710000000    -0.482634   
O379     O      0.580030000000     0.069010000000     0.934430000000    -0.483771   
O380     O      0.622670000000     0.018170000000     0.936660000000    -0.486002   
O381     O      0.622200000000     0.061750000000     0.838090000000    -0.48298    
O382     O      0.645640000000     0.010990000000     0.886610000000    -0.503689   
O383     O      0.557970000000     0.074240000000     0.883610000000    -0.505005   
O384     O      0.639920000000     0.078100000000     0.887660000000    -0.502246   
O385     O      0.992410000000     0.642170000000     0.458240000000    -0.488175   
O386     O      0.016870000000     0.641160000000     0.508050000000    -0.491872   
O387     O      0.012550000000     0.702520000000     0.516820000000    -0.489119   
O388     O      0.967380000000     0.700710000000     0.454250000000    -0.491985   
O389     O      0.931880000000     0.633430000000     0.502220000000    -0.492511   
O390     O      0.923790000000     0.695350000000     0.485110000000    -0.490347   
O391     O      0.971730000000     0.699430000000     0.552370000000    -0.484064   
O392     O      0.951260000000     0.647110000000     0.552060000000    -0.480772   
O393     O      0.644390000000     0.777100000000     0.136870000000    -0.503627   
O394     O      0.604920000000     0.759960000000     0.167950000000    -0.490972   
O395     O      0.616360000000     0.821720000000     0.081770000000    -0.478393   
O396     O      0.586930000000     0.775330000000     0.073750000000    -0.482551   
O397     O      0.572110000000     0.817630000000     0.178150000000    -0.490554   
O398     O      0.550990000000     0.765540000000     0.113310000000    -0.493391   
O399     O      0.625500000000     0.838280000000     0.133820000000    -0.492195   
O400     O      0.547580000000     0.826880000000     0.129440000000    -0.499502   
O401     O      0.754320000000     0.925970000000     0.565860000000    -0.477711   
O402     O      0.760260000000     0.959190000000     0.525890000000    -0.49376    
O403     O      0.744680000000     0.894030000000     0.462700000000    -0.4792     
O404     O      0.690290000000     0.881400000000     0.506720000000    -0.499069   
O405     O      0.712340000000     0.948860000000     0.467570000000    -0.484437   
O406     O      0.699260000000     0.897950000000     0.558550000000    -0.481534   
O407     O      0.775660000000     0.890570000000     0.507880000000    -0.49736    
O408     O      0.685580000000     0.951460000000     0.516040000000    -0.499375   
O409     O      0.838670000000     0.564570000000     0.190180000000    -0.484674   
O410     O      0.810310000000     0.578010000000     0.145750000000    -0.492812   
O411     O      0.877010000000     0.566680000000     0.087640000000    -0.47929    
O412     O      0.868240000000     0.513570000000     0.180520000000    -0.478087   
O413     O      0.822060000000     0.504090000000     0.124160000000    -0.489613   
O414     O      0.899900000000     0.515880000000     0.135580000000    -0.491552   
O415     O      0.891940000000     0.583300000000     0.137850000000    -0.493183   
O416     O      0.824670000000     0.538170000000     0.085250000000    -0.478894   
O417     O      0.758970000000     0.690590000000     0.269530000000    -0.49073    
O418     O      0.714100000000     0.697220000000     0.297900000000    -0.491175   
O419     O      0.699760000000     0.702720000000     0.211900000000    -0.491981   
O420     O      0.730850000000     0.650950000000     0.196140000000    -0.490123   
O421     O      0.698270000000     0.639720000000     0.300100000000    -0.491197   
O422     O      0.755380000000     0.632980000000     0.241240000000    -0.4911     
O423     O      0.660170000000     0.681920000000     0.239750000000    -0.491835   
O424     O      0.679110000000     0.624640000000     0.250720000000    -0.492583   
O425     O      0.841380000000     0.759000000000     0.423250000000    -0.493094   
O426     O      0.886010000000     0.766150000000     0.394540000000    -0.485215   
O427     O      0.793690000000     0.763530000000     0.358950000000    -0.480421   
O428     O      0.793960000000     0.821060000000     0.379130000000    -0.486416   
O429     O      0.881890000000     0.823390000000     0.366570000000    -0.486422   
O430     O      0.827590000000     0.821270000000     0.422380000000    -0.487775   
O431     O      0.839170000000     0.755290000000     0.332060000000    -0.488433   
O432     O      0.850780000000     0.812970000000     0.322880000000    -0.489372   
O433     O      0.015550000000     0.951820000000     0.260500000000    -0.4956     
O434     O      0.994970000000     0.943140000000     0.311240000000    -0.479397   
O435     O      0.927000000000     0.946500000000     0.262720000000    -0.497703   
O436     O      0.987710000000     0.889350000000     0.216130000000    -0.486075   
O437     O      0.959710000000     0.897950000000     0.317760000000    -0.478654   
O438     O      0.015480000000     0.883370000000     0.263370000000    -0.500809   
O439     O      0.956160000000     0.944220000000     0.215990000000    -0.481686   
O440     O      0.932480000000     0.883340000000     0.272640000000    -0.491063   
O441     O      0.561810000000     0.505100000000     0.391990000000    -0.503112   
O442     O      0.579040000000     0.517440000000     0.340710000000    -0.482686   
O443     O      0.580030000000     0.569010000000     0.434430000000    -0.483495   
O444     O      0.622670000000     0.518170000000     0.436660000000    -0.485981   
O445     O      0.622200000000     0.561750000000     0.338090000000    -0.4828     
O446     O      0.645640000000     0.510990000000     0.386610000000    -0.503828   
O447     O      0.557970000000     0.574240000000     0.383600000000    -0.504733   
O448     O      0.639920000000     0.578100000000     0.387660000000    -0.502087   
O449     O      0.992410000000     0.642170000000     0.958240000000    -0.488073   
O450     O      0.016880000000     0.641160000000     0.008050000000    -0.491915   
O451     O      0.012550000000     0.702520000000     0.016820000000    -0.489144   
O452     O      0.967380000000     0.700710000000     0.954250000000    -0.491835   
O453     O      0.931890000000     0.633430000000     0.002220000000    -0.492613   
O454     O      0.923800000000     0.695350000000     0.985110000000    -0.490316   
O455     O      0.971730000000     0.699430000000     0.052370000000    -0.484066   
O456     O      0.951260000000     0.647110000000     0.052070000000    -0.480503   
O457     O      0.644390000000     0.777110000000     0.636880000000    -0.50385    
O458     O      0.604920000000     0.759960000000     0.667950000000    -0.491036   
O459     O      0.616360000000     0.821720000000     0.581770000000    -0.47845    
O460     O      0.586930000000     0.775330000000     0.573760000000    -0.482768   
O461     O      0.572110000000     0.817630000000     0.678150000000    -0.490641   
O462     O      0.550990000000     0.765540000000     0.613320000000    -0.493287   
O463     O      0.625500000000     0.838280000000     0.633820000000    -0.492284   
O464     O      0.547580000000     0.826880000000     0.629450000000    -0.499456   
O465     O      0.754320000000     0.925970000000     0.065860000000    -0.477872   
O466     O      0.760260000000     0.959190000000     0.025890000000    -0.493886   
O467     O      0.744680000000     0.894040000000     0.962700000000    -0.479081   
O468     O      0.690290000000     0.881400000000     0.006720000000    -0.498922   
O469     O      0.712340000000     0.948860000000     0.967570000000    -0.484068   
O470     O      0.699260000000     0.897950000000     0.058560000000    -0.481267   
O471     O      0.775660000000     0.890570000000     0.007880000000    -0.497673   
O472     O      0.685580000000     0.951460000000     0.016050000000    -0.499392   
O473     O      0.838660000000     0.564570000000     0.690180000000    -0.484766   
O474     O      0.810310000000     0.578010000000     0.645750000000    -0.49284    
O475     O      0.877010000000     0.566680000000     0.587640000000    -0.479296   
O476     O      0.868240000000     0.513570000000     0.680520000000    -0.478089   
O477     O      0.822060000000     0.504090000000     0.624160000000    -0.489551   
O478     O      0.899900000000     0.515880000000     0.635580000000    -0.49155    
O479     O      0.891930000000     0.583300000000     0.637850000000    -0.493293   
O480     O      0.824660000000     0.538180000000     0.585250000000    -0.478678   
O481     O      0.758970000000     0.690590000000     0.769530000000    -0.490832   
O482     O      0.714110000000     0.697220000000     0.797900000000    -0.491399   
O483     O      0.699760000000     0.702720000000     0.711910000000    -0.492127   
O484     O      0.730850000000     0.650950000000     0.696150000000    -0.490354   
O485     O      0.698280000000     0.639720000000     0.800110000000    -0.490982   
O486     O      0.755380000000     0.632980000000     0.741240000000    -0.49115    
O487     O      0.660170000000     0.681920000000     0.739750000000    -0.491891   
O488     O      0.679110000000     0.624640000000     0.750720000000    -0.492415   
O489     O      0.841380000000     0.759000000000     0.923250000000    -0.49308    
O490     O      0.886010000000     0.766150000000     0.894540000000    -0.485128   
O491     O      0.793690000000     0.763530000000     0.858950000000    -0.480453   
O492     O      0.793960000000     0.821060000000     0.879140000000    -0.486587   
O493     O      0.881890000000     0.823390000000     0.866580000000    -0.486425   
O494     O      0.827590000000     0.821270000000     0.922380000000    -0.487838   
O495     O      0.839170000000     0.755280000000     0.832070000000    -0.488505   
O496     O      0.850780000000     0.812970000000     0.822890000000    -0.489525   
O497     O      0.015540000000     0.951820000000     0.760500000000    -0.495733   
O498     O      0.994970000000     0.943140000000     0.811240000000    -0.4794     
O499     O      0.927000000000     0.946500000000     0.762720000000    -0.497601   
O500     O      0.987710000000     0.889350000000     0.716130000000    -0.486084   
O501     O      0.959720000000     0.897950000000     0.817760000000    -0.478548   
O502     O      0.015480000000     0.883370000000     0.763370000000    -0.500811   
O503     O      0.956160000000     0.944220000000     0.715990000000    -0.481711   
O504     O      0.932480000000     0.883340000000     0.772640000000    -0.491022   
O505     O      0.561810000000     0.505100000000     0.891990000000    -0.503191   
O506     O      0.579040000000     0.517440000000     0.840710000000    -0.482641   
O507     O      0.580030000000     0.569010000000     0.934430000000    -0.4836     
O508     O      0.622670000000     0.518170000000     0.936660000000    -0.485995   
O509     O      0.622200000000     0.561750000000     0.838090000000    -0.482816   
O510     O      0.645640000000     0.510990000000     0.886610000000    -0.503725   
O511     O      0.557970000000     0.574240000000     0.883610000000    -0.50483    
O512     O      0.639920000000     0.578100000000     0.887660000000    -0.502073   


