data_structure

_audit_creation_method RASPA-1.0
_audit_creation_date 2023-5-22
_audit_author_name 'Poobodin Mano'

_cell_length_a    31.0705
_cell_length_b    31.26
_cell_length_c    30.9225
_cell_angle_alpha 90
_cell_angle_beta  90
_cell_angle_gamma 90
_cell_volume      30033.9

_symmetry_cell_setting          triclinic
_symmetry_space_group_name_Hall 'P 1'
_symmetry_space_group_name_H-M  'P 1'
_symmetry_Int_Tables_number     1

_symmetry_equiv_pos_as_xyz 'x,y,z'

loop_
_atom_site_label
_atom_site_type_symbol
_atom_site_fract_x
_atom_site_fract_y
_atom_site_fract_z
_atom_site_charge
C1       C      0.702010000000     0.481570000000     0.712330000000     0.426966   
C2       C      0.584380000000     0.383360000000     0.686350000000     0.434383   
C3       C      0.635120000000     0.423460000000     0.812450000000     0.432683   
C4       C      0.573880000000     0.506950000000     0.696420000000     0.417773   
C5       C      0.209890000000     0.467470000000     0.400140000000     0.408862   
C6       C      0.335400000000     0.472690000000     0.321190000000     0.43209    
C7       C      0.236360000000     0.579970000000     0.331710000000     0.422121   
C8       C      0.323140000000     0.543220000000     0.438140000000     0.4096     
C9       C      0.424660000000     0.686900000000     0.783730000000     0.425619   
C10      C      0.410090000000     0.550040000000     0.748690000000     0.431817   
C11      C      0.445010000000     0.629420000000     0.649600000000     0.432438   
C12      C      0.540160000000     0.616560000000     0.757570000000     0.435091   
C13      C      0.553470000000     0.311960000000     0.315220000000     0.420917   
C14      C      0.607330000000     0.186300000000     0.318460000000     0.426869   
C15      C      0.594560000000     0.271780000000     0.196320000000     0.438614   
C16      C      0.698490000000     0.290470000000     0.280620000000     0.43736    
C17      C      0.443560000000     0.549540000000     0.443940000000     0.425805   
C18      C      0.586320000000     0.523720000000     0.455240000000     0.431165   
C19      C      0.499580000000     0.472890000000     0.547100000000     0.424687   
C20      C      0.497220000000     0.423790000000     0.409680000000     0.432393   
C21      C      0.580130000000     0.618750000000     0.600300000000     0.425801   
C22      C      0.592020000000     0.753840000000     0.519160000000     0.424488   
C23      C      0.626690000000     0.631010000000     0.476210000000     0.42662    
C24      C      0.488180000000     0.674910000000     0.536530000000     0.420902   
C25      C      0.692720000000     0.815070000000     0.480260000000     0.424786   
C26      C      0.771700000000     0.819970000000     0.365600000000     0.434369   
C27      C      0.814970000000     0.745400000000     0.485050000000     0.429656   
C28      C      0.720720000000     0.702450000000     0.387740000000     0.422302   
C29      C      0.309590000000     0.410660000000     0.671410000000     0.43302    
C30      C      0.378720000000     0.307320000000     0.748410000000     0.428647   
C31      C      0.359380000000     0.289010000000     0.614140000000     0.415986   
C32      C      0.445120000000     0.394380000000     0.657430000000     0.415758   
C33      C      0.870220000000     0.261640000000     0.540210000000     0.0818464  
C34      C      0.634630000000     0.819260000000     0.534710000000     0.0870617  
C35      C      0.500630000000     0.419940000000     0.606150000000     0.084138   
C36      C      0.639110000000     0.573990000000     0.422730000000     0.0909174  
C37      C      0.752390000000     0.848040000000     0.294020000000     0.0958118  
C38      C      0.532930000000     0.371900000000     0.362400000000     0.0859146  
C39      C      0.420160000000     0.764130000000     0.801520000000     0.0826596  
C40      C      0.424810000000     0.670510000000     0.583670000000     0.0869546  
C41      C      0.597960000000     0.607270000000     0.812060000000     0.0903291  
C42      C      0.226500000000     0.657770000000     0.322640000000     0.0886115  
C43      C      0.401590000000     0.476120000000     0.277220000000     0.0894975  
C44      C      0.379670000000     0.591070000000     0.466510000000     0.0924459  
C45      C      0.280900000000     0.477640000000     0.700190000000     0.0936385  
C46      C      0.583150000000     0.321140000000     0.635900000000     0.0905711  
C47      C      0.553540000000     0.553530000000     0.635220000000     0.0924558  
C48      C      0.636030000000     0.439500000000     0.391290000000     0.0910139  
C49      C      0.702010000000     0.481570000000     0.212340000000     0.426968   
C50      C      0.584380000000     0.383360000000     0.186350000000     0.434382   
C51      C      0.635120000000     0.423460000000     0.312450000000     0.432682   
C52      C      0.573880000000     0.506950000000     0.196420000000     0.417772   
C53      C      0.209890000000     0.467470000000     0.900140000000     0.408861   
C54      C      0.335400000000     0.472690000000     0.821190000000     0.43209    
C55      C      0.236360000000     0.579970000000     0.831710000000     0.422157   
C56      C      0.323140000000     0.543220000000     0.938140000000     0.4096     
C57      C      0.424660000000     0.686900000000     0.283730000000     0.425619   
C58      C      0.410090000000     0.550040000000     0.248690000000     0.431816   
C59      C      0.445010000000     0.629420000000     0.149600000000     0.432438   
C60      C      0.540160000000     0.616560000000     0.257570000000     0.435092   
C61      C      0.553470000000     0.311960000000     0.815220000000     0.420919   
C62      C      0.607330000000     0.186300000000     0.818460000000     0.42687    
C63      C      0.594560000000     0.271780000000     0.696320000000     0.438614   
C64      C      0.698490000000     0.290470000000     0.780620000000     0.437361   
C65      C      0.443560000000     0.549540000000     0.943940000000     0.425805   
C66      C      0.586320000000     0.523720000000     0.955240000000     0.431165   
C67      C      0.499580000000     0.472890000000     0.047100000000     0.424685   
C68      C      0.497220000000     0.423790000000     0.909680000000     0.432353   
C69      C      0.580130000000     0.618750000000     0.100300000000     0.425802   
C70      C      0.592020000000     0.753840000000     0.019150000000     0.424519   
C71      C      0.626690000000     0.631010000000     0.976210000000     0.42661    
C72      C      0.488180000000     0.674910000000     0.036530000000     0.420903   
C73      C      0.692720000000     0.815070000000     0.980260000000     0.424781   
C74      C      0.771700000000     0.819970000000     0.865600000000     0.434368   
C75      C      0.814970000000     0.745400000000     0.985050000000     0.429646   
C76      C      0.720720000000     0.702450000000     0.887740000000     0.422499   
C77      C      0.309590000000     0.410660000000     0.171410000000     0.43302    
C78      C      0.378720000000     0.307320000000     0.248410000000     0.428532   
C79      C      0.359380000000     0.289010000000     0.114140000000     0.416072   
C80      C      0.445120000000     0.394380000000     0.157430000000     0.41576    
C81      C      0.870220000000     0.261640000000     0.040210000000     0.081803   
C82      C      0.634630000000     0.819260000000     0.034710000000     0.0870788  
C83      C      0.500630000000     0.419940000000     0.106150000000     0.0841391  
C84      C      0.639110000000     0.573990000000     0.922730000000     0.0909165  
C85      C      0.752390000000     0.848040000000     0.794020000000     0.0958134  
C86      C      0.532930000000     0.371900000000     0.862390000000     0.0859038  
C87      C      0.420160000000     0.764130000000     0.301520000000     0.0826517  
C88      C      0.424810000000     0.670510000000     0.083670000000     0.0869547  
C89      C      0.597960000000     0.607270000000     0.312060000000     0.0903294  
C90      C      0.226500000000     0.657770000000     0.822640000000     0.0886372  
C91      C      0.401590000000     0.476120000000     0.777220000000     0.0894982  
C92      C      0.379670000000     0.591070000000     0.966510000000     0.0924467  
C93      C      0.280900000000     0.477640000000     0.200190000000     0.0936353  
C94      C      0.583150000000     0.321140000000     0.135900000000     0.0905711  
C95      C      0.553540000000     0.553530000000     0.135220000000     0.0924559  
C96      C      0.636030000000     0.439500000000     0.891290000000     0.091014   
C97      C      0.702010000000     0.981570000000     0.712330000000     0.421658   
C98      C      0.584380000000     0.883350000000     0.686350000000     0.434347   
C99      C      0.635120000000     0.923460000000     0.812450000000     0.432706   
C100     C      0.573880000000     0.006950000000     0.696420000000     0.423727   
C101     C      0.209890000000     0.967470000000     0.400140000000     0.409068   
C102     C      0.335400000000     0.972690000000     0.321190000000     0.429118   
C103     C      0.236360000000     0.079970000000     0.331710000000     0.422152   
C104     C      0.323140000000     0.043220000000     0.438140000000     0.409731   
C105     C      0.424660000000     0.186900000000     0.783730000000     0.425609   
C106     C      0.410090000000     0.050040000000     0.748690000000     0.431974   
C107     C      0.445010000000     0.129420000000     0.649600000000     0.432456   
C108     C      0.540160000000     0.116560000000     0.757570000000     0.435165   
C109     C      0.553470000000     0.811960000000     0.315220000000     0.420924   
C110     C      0.607330000000     0.686300000000     0.318460000000     0.426879   
C111     C      0.594560000000     0.771780000000     0.196320000000     0.438619   
C112     C      0.698490000000     0.790470000000     0.280620000000     0.437368   
C113     C      0.443560000000     0.049540000000     0.443940000000     0.425524   
C114     C      0.586320000000     0.023720000000     0.455240000000     0.434385   
C115     C      0.499580000000     0.972890000000     0.547100000000     0.421331   
C116     C      0.497220000000     0.923790000000     0.409680000000     0.432354   
C117     C      0.580130000000     0.118750000000     0.600300000000     0.425861   
C118     C      0.592020000000     0.253840000000     0.519160000000     0.42443    
C119     C      0.626690000000     0.131010000000     0.476210000000     0.426798   
C120     C      0.488180000000     0.174910000000     0.536530000000     0.420899   
C121     C      0.692720000000     0.315070000000     0.480260000000     0.424748   
C122     C      0.771700000000     0.319970000000     0.365600000000     0.43439    
C123     C      0.814970000000     0.245400000000     0.485050000000     0.429406   
C124     C      0.720720000000     0.202450000000     0.387740000000     0.422296   
C125     C      0.309590000000     0.910650000000     0.671410000000     0.432981   
C126     C      0.378720000000     0.807320000000     0.748410000000     0.428646   
C127     C      0.359380000000     0.789010000000     0.614140000000     0.415991   
C128     C      0.445120000000     0.894380000000     0.657430000000     0.415633   
C129     C      0.870220000000     0.761640000000     0.540210000000     0.0818655  
C130     C      0.634630000000     0.319260000000     0.534710000000     0.0870503  
C131     C      0.500630000000     0.919940000000     0.606150000000     0.0838344  
C132     C      0.639110000000     0.073990000000     0.422730000000     0.0911365  
C133     C      0.752390000000     0.348040000000     0.294020000000     0.0958025  
C134     C      0.532930000000     0.871900000000     0.362400000000     0.0858835  
C135     C      0.420160000000     0.264130000000     0.801520000000     0.0826511  
C136     C      0.424810000000     0.170510000000     0.583670000000     0.0869627  
C137     C      0.597960000000     0.107270000000     0.812060000000     0.0902733  
C138     C      0.226500000000     0.157770000000     0.322640000000     0.0886231  
C139     C      0.401590000000     0.976120000000     0.277220000000     0.0875772  
C140     C      0.379670000000     0.091080000000     0.466510000000     0.0924304  
C141     C      0.280900000000     0.977640000000     0.700190000000     0.0917444  
C142     C      0.583150000000     0.821140000000     0.635900000000     0.0905872  
C143     C      0.553540000000     0.053530000000     0.635220000000     0.0927733  
C144     C      0.636030000000     0.939500000000     0.391290000000     0.0910405  
C145     C      0.702010000000     0.981570000000     0.212340000000     0.42166    
C146     C      0.584380000000     0.883350000000     0.186350000000     0.434346   
C147     C      0.635120000000     0.923460000000     0.312450000000     0.432705   
C148     C      0.573880000000     0.006950000000     0.196420000000     0.423725   
C149     C      0.209890000000     0.967470000000     0.900140000000     0.409067   
C150     C      0.335400000000     0.972690000000     0.821190000000     0.429117   
C151     C      0.236360000000     0.079970000000     0.831710000000     0.422188   
C152     C      0.323140000000     0.043220000000     0.938140000000     0.409731   
C153     C      0.424660000000     0.186900000000     0.283730000000     0.425609   
C154     C      0.410090000000     0.050040000000     0.248690000000     0.431974   
C155     C      0.445010000000     0.129420000000     0.149600000000     0.432456   
C156     C      0.540160000000     0.116560000000     0.257570000000     0.435165   
C157     C      0.553470000000     0.811960000000     0.815220000000     0.420925   
C158     C      0.607330000000     0.686300000000     0.818460000000     0.426879   
C159     C      0.594560000000     0.771780000000     0.696320000000     0.438619   
C160     C      0.698490000000     0.790470000000     0.780620000000     0.437368   
C161     C      0.443560000000     0.049540000000     0.943940000000     0.425524   
C162     C      0.586320000000     0.023720000000     0.955240000000     0.434385   
C163     C      0.499580000000     0.972890000000     0.047100000000     0.421329   
C164     C      0.497220000000     0.923790000000     0.909680000000     0.432313   
C165     C      0.580130000000     0.118750000000     0.100300000000     0.425862   
C166     C      0.592020000000     0.253840000000     0.019150000000     0.42446    
C167     C      0.626690000000     0.131010000000     0.976210000000     0.426789   
C168     C      0.488180000000     0.174910000000     0.036530000000     0.4209     
C169     C      0.692720000000     0.315070000000     0.980260000000     0.424743   
C170     C      0.771700000000     0.319970000000     0.865600000000     0.434389   
C171     C      0.814970000000     0.245400000000     0.985050000000     0.429396   
C172     C      0.720720000000     0.202450000000     0.887740000000     0.422493   
C173     C      0.309590000000     0.910650000000     0.171410000000     0.432981   
C174     C      0.378720000000     0.807320000000     0.248410000000     0.428531   
C175     C      0.359380000000     0.789010000000     0.114140000000     0.416077   
C176     C      0.445120000000     0.894380000000     0.157430000000     0.415635   
C177     C      0.870220000000     0.761640000000     0.040210000000     0.0818222  
C178     C      0.634630000000     0.319260000000     0.034710000000     0.0870675  
C179     C      0.500630000000     0.919940000000     0.106150000000     0.0838355  
C180     C      0.639110000000     0.073990000000     0.922730000000     0.0911356  
C181     C      0.752390000000     0.348040000000     0.794020000000     0.0958042  
C182     C      0.532930000000     0.871900000000     0.862390000000     0.0858727  
C183     C      0.420160000000     0.264130000000     0.301520000000     0.0826432  
C184     C      0.424810000000     0.170510000000     0.083670000000     0.0869628  
C185     C      0.597960000000     0.107270000000     0.312060000000     0.0902736  
C186     C      0.226500000000     0.157770000000     0.822640000000     0.0886488  
C187     C      0.401590000000     0.976120000000     0.777220000000     0.0875778  
C188     C      0.379670000000     0.091080000000     0.966510000000     0.0924312  
C189     C      0.280900000000     0.977640000000     0.200190000000     0.0917413  
C190     C      0.583150000000     0.821140000000     0.135900000000     0.0905872  
C191     C      0.553540000000     0.053530000000     0.135220000000     0.0927734  
C192     C      0.636030000000     0.939500000000     0.891290000000     0.0910405  
C193     C      0.202010000000     0.481570000000     0.712330000000     0.426967   
C194     C      0.084380000000     0.383360000000     0.686350000000     0.434194   
C195     C      0.135120000000     0.423460000000     0.812450000000     0.43268    
C196     C      0.073880000000     0.506950000000     0.696420000000     0.417776   
C197     C      0.709890000000     0.467470000000     0.400140000000     0.408862   
C198     C      0.835400000000     0.472690000000     0.321190000000     0.43201    
C199     C      0.736360000000     0.579970000000     0.331710000000     0.422117   
C200     C      0.823140000000     0.543220000000     0.438140000000     0.409598   
C201     C      0.924670000000     0.686900000000     0.783730000000     0.425609   
C202     C      0.910090000000     0.550040000000     0.748690000000     0.431813   
C203     C      0.945010000000     0.629420000000     0.649600000000     0.432425   
C204     C      0.040160000000     0.616560000000     0.757570000000     0.435077   
C205     C      0.053480000000     0.311960000000     0.315220000000     0.420941   
C206     C      0.107330000000     0.186300000000     0.318460000000     0.426873   
C207     C      0.094560000000     0.271780000000     0.196320000000     0.438527   
C208     C      0.198490000000     0.290470000000     0.280620000000     0.437446   
C209     C      0.943560000000     0.549540000000     0.443940000000     0.425744   
C210     C      0.086320000000     0.523720000000     0.455240000000     0.431162   
C211     C      0.999580000000     0.472890000000     0.547100000000     0.424466   
C212     C      0.997220000000     0.423790000000     0.409680000000     0.432507   
C213     C      0.080130000000     0.618750000000     0.600300000000     0.425804   
C214     C      0.092020000000     0.753840000000     0.519160000000     0.424492   
C215     C      0.126690000000     0.631010000000     0.476210000000     0.426617   
C216     C      0.988180000000     0.674910000000     0.536530000000     0.42071    
C217     C      0.192720000000     0.815070000000     0.480260000000     0.424913   
C218     C      0.271700000000     0.819970000000     0.365600000000     0.434363   
C219     C      0.314970000000     0.745400000000     0.485050000000     0.429657   
C220     C      0.220720000000     0.702450000000     0.387740000000     0.4223     
C221     C      0.809590000000     0.410660000000     0.671410000000     0.432922   
C222     C      0.878720000000     0.307320000000     0.748410000000     0.428628   
C223     C      0.859390000000     0.289010000000     0.614140000000     0.41598    
C224     C      0.945120000000     0.394380000000     0.657430000000     0.415753   
C225     C      0.370220000000     0.261640000000     0.540210000000     0.0818508  
C226     C      0.134630000000     0.819260000000     0.534710000000     0.0870668  
C227     C      0.000630000000     0.419940000000     0.606150000000     0.0843666  
C228     C      0.139100000000     0.573990000000     0.422730000000     0.0909131  
C229     C      0.252390000000     0.848040000000     0.294020000000     0.0958034  
C230     C      0.032930000000     0.371900000000     0.362400000000     0.0859767  
C231     C      0.920160000000     0.764130000000     0.801520000000     0.0827095  
C232     C      0.924810000000     0.670510000000     0.583670000000     0.0869385  
C233     C      0.097960000000     0.607270000000     0.812060000000     0.0903282  
C234     C      0.726500000000     0.657770000000     0.322640000000     0.0886061  
C235     C      0.901600000000     0.476120000000     0.277220000000     0.0894572  
C236     C      0.879660000000     0.591070000000     0.466510000000     0.0924486  
C237     C      0.780910000000     0.477640000000     0.700190000000     0.0935616  
C238     C      0.083150000000     0.321140000000     0.635900000000     0.0905637  
C239     C      0.053550000000     0.553530000000     0.635220000000     0.0924884  
C240     C      0.136030000000     0.439500000000     0.391290000000     0.0910124  
C241     C      0.202010000000     0.481570000000     0.212340000000     0.426969   
C242     C      0.084380000000     0.383360000000     0.186350000000     0.434193   
C243     C      0.135120000000     0.423460000000     0.312450000000     0.432679   
C244     C      0.073880000000     0.506950000000     0.196420000000     0.417775   
C245     C      0.709890000000     0.467470000000     0.900140000000     0.408862   
C246     C      0.835400000000     0.472690000000     0.821190000000     0.43201    
C247     C      0.736360000000     0.579970000000     0.831710000000     0.422153   
C248     C      0.823140000000     0.543220000000     0.938140000000     0.409598   
C249     C      0.924670000000     0.686900000000     0.283730000000     0.425609   
C250     C      0.910090000000     0.550040000000     0.248690000000     0.431813   
C251     C      0.945010000000     0.629420000000     0.149600000000     0.432425   
C252     C      0.040160000000     0.616560000000     0.257570000000     0.435077   
C253     C      0.053480000000     0.311960000000     0.815220000000     0.420942   
C254     C      0.107330000000     0.186300000000     0.818460000000     0.426874   
C255     C      0.094560000000     0.271780000000     0.696320000000     0.438527   
C256     C      0.198490000000     0.290470000000     0.780620000000     0.437446   
C257     C      0.943560000000     0.549540000000     0.943940000000     0.425745   
C258     C      0.086320000000     0.523720000000     0.955240000000     0.431163   
C259     C      0.999580000000     0.472890000000     0.047100000000     0.424463   
C260     C      0.997220000000     0.423790000000     0.909680000000     0.432466   
C261     C      0.080130000000     0.618750000000     0.100300000000     0.425805   
C262     C      0.092020000000     0.753840000000     0.019150000000     0.424522   
C263     C      0.126690000000     0.631010000000     0.976210000000     0.426607   
C264     C      0.988180000000     0.674910000000     0.036530000000     0.420711   
C265     C      0.192720000000     0.815070000000     0.980260000000     0.424907   
C266     C      0.271700000000     0.819970000000     0.865600000000     0.434363   
C267     C      0.314970000000     0.745400000000     0.985050000000     0.429647   
C268     C      0.220720000000     0.702450000000     0.887740000000     0.422497   
C269     C      0.809590000000     0.410660000000     0.171410000000     0.432922   
C270     C      0.878720000000     0.307320000000     0.248410000000     0.428513   
C271     C      0.859390000000     0.289010000000     0.114140000000     0.416066   
C272     C      0.945120000000     0.394380000000     0.157430000000     0.415755   
C273     C      0.370220000000     0.261640000000     0.040210000000     0.0818074  
C274     C      0.134630000000     0.819260000000     0.034710000000     0.087084   
C275     C      0.000630000000     0.419940000000     0.106150000000     0.0843677  
C276     C      0.139100000000     0.573990000000     0.922730000000     0.0909122  
C277     C      0.252390000000     0.848040000000     0.794020000000     0.095805   
C278     C      0.032930000000     0.371900000000     0.862390000000     0.0859658  
C279     C      0.920160000000     0.764130000000     0.301520000000     0.0827016  
C280     C      0.924810000000     0.670510000000     0.083670000000     0.0869386  
C281     C      0.097960000000     0.607270000000     0.312060000000     0.0903285  
C282     C      0.726500000000     0.657770000000     0.822640000000     0.0886318  
C283     C      0.901600000000     0.476120000000     0.777220000000     0.0894578  
C284     C      0.879660000000     0.591070000000     0.966510000000     0.0924494  
C285     C      0.780910000000     0.477640000000     0.200190000000     0.0935584  
C286     C      0.083150000000     0.321140000000     0.135900000000     0.0905638  
C287     C      0.053550000000     0.553530000000     0.135220000000     0.0924885  
C288     C      0.136030000000     0.439500000000     0.891290000000     0.0910124  
C289     C      0.202010000000     0.981570000000     0.712330000000     0.421659   
C290     C      0.084380000000     0.883350000000     0.686350000000     0.434158   
C291     C      0.135120000000     0.923460000000     0.812450000000     0.432703   
C292     C      0.073880000000     0.006950000000     0.696420000000     0.423731   
C293     C      0.709890000000     0.967470000000     0.400140000000     0.409068   
C294     C      0.835400000000     0.972690000000     0.321190000000     0.429038   
C295     C      0.736360000000     0.079970000000     0.331710000000     0.422148   
C296     C      0.823140000000     0.043220000000     0.438140000000     0.409729   
C297     C      0.924670000000     0.186900000000     0.783730000000     0.4256     
C298     C      0.910090000000     0.050040000000     0.748690000000     0.43197    
C299     C      0.945010000000     0.129420000000     0.649600000000     0.432443   
C300     C      0.040160000000     0.116560000000     0.757570000000     0.43515    
C301     C      0.053480000000     0.811960000000     0.315220000000     0.420947   
C302     C      0.107330000000     0.686300000000     0.318460000000     0.426883   
C303     C      0.094560000000     0.771780000000     0.196320000000     0.438532   
C304     C      0.198490000000     0.790470000000     0.280620000000     0.437453   
C305     C      0.943560000000     0.049540000000     0.443940000000     0.425463   
C306     C      0.086320000000     0.023720000000     0.455240000000     0.434383   
C307     C      0.999580000000     0.972890000000     0.547100000000     0.42111    
C308     C      0.997220000000     0.923790000000     0.409680000000     0.432468   
C309     C      0.080130000000     0.118750000000     0.600300000000     0.425865   
C310     C      0.092020000000     0.253840000000     0.519160000000     0.424433   
C311     C      0.126690000000     0.131010000000     0.476210000000     0.426795   
C312     C      0.988180000000     0.174910000000     0.536530000000     0.420707   
C313     C      0.192720000000     0.315070000000     0.480260000000     0.424875   
C314     C      0.271700000000     0.319970000000     0.365600000000     0.434384   
C315     C      0.314970000000     0.245400000000     0.485050000000     0.429408   
C316     C      0.220720000000     0.202450000000     0.387740000000     0.422295   
C317     C      0.809590000000     0.910650000000     0.671410000000     0.432884   
C318     C      0.878720000000     0.807320000000     0.748410000000     0.428627   
C319     C      0.859390000000     0.789010000000     0.614140000000     0.415985   
C320     C      0.945120000000     0.894380000000     0.657430000000     0.415629   
C321     C      0.370220000000     0.761640000000     0.540210000000     0.0818699  
C322     C      0.134630000000     0.319260000000     0.534710000000     0.0870555  
C323     C      0.000630000000     0.919940000000     0.606150000000     0.0840624  
C324     C      0.139100000000     0.073990000000     0.422730000000     0.0911322  
C325     C      0.252390000000     0.348040000000     0.294020000000     0.0957941  
C326     C      0.032930000000     0.871900000000     0.362400000000     0.0859455  
C327     C      0.920160000000     0.264130000000     0.801520000000     0.0827009  
C328     C      0.924810000000     0.170510000000     0.583670000000     0.0869466  
C329     C      0.097960000000     0.107270000000     0.812060000000     0.0902724  
C330     C      0.726500000000     0.157770000000     0.322640000000     0.0886177  
C331     C      0.901600000000     0.976120000000     0.277220000000     0.0875371  
C332     C      0.879660000000     0.091080000000     0.466510000000     0.0924331  
C333     C      0.780910000000     0.977640000000     0.700190000000     0.0916684  
C334     C      0.083150000000     0.821140000000     0.635900000000     0.0905798  
C335     C      0.053550000000     0.053530000000     0.635220000000     0.0928057  
C336     C      0.136030000000     0.939500000000     0.391290000000     0.091039   
C337     C      0.202010000000     0.981570000000     0.212340000000     0.421661   
C338     C      0.084380000000     0.883350000000     0.186350000000     0.434158   
C339     C      0.135120000000     0.923460000000     0.312450000000     0.432702   
C340     C      0.073880000000     0.006950000000     0.196420000000     0.423729   
C341     C      0.709890000000     0.967470000000     0.900140000000     0.409068   
C342     C      0.835400000000     0.972690000000     0.821190000000     0.429038   
C343     C      0.736360000000     0.079970000000     0.831710000000     0.422184   
C344     C      0.823140000000     0.043220000000     0.938140000000     0.409729   
C345     C      0.924670000000     0.186900000000     0.283730000000     0.4256     
C346     C      0.910090000000     0.050040000000     0.248690000000     0.43197    
C347     C      0.945010000000     0.129420000000     0.149600000000     0.432443   
C348     C      0.040160000000     0.116560000000     0.257570000000     0.43515    
C349     C      0.053480000000     0.811960000000     0.815220000000     0.420949   
C350     C      0.107330000000     0.686300000000     0.818460000000     0.426883   
C351     C      0.094560000000     0.771780000000     0.696320000000     0.438532   
C352     C      0.198490000000     0.790470000000     0.780620000000     0.437454   
C353     C      0.943560000000     0.049540000000     0.943940000000     0.425464   
C354     C      0.086320000000     0.023720000000     0.955240000000     0.434383   
C355     C      0.999580000000     0.972890000000     0.047100000000     0.421108   
C356     C      0.997220000000     0.923790000000     0.909680000000     0.432427   
C357     C      0.080130000000     0.118750000000     0.100300000000     0.425866   
C358     C      0.092020000000     0.253840000000     0.019150000000     0.424463   
C359     C      0.126690000000     0.131010000000     0.976210000000     0.426785   
C360     C      0.988180000000     0.174910000000     0.036530000000     0.420708   
C361     C      0.192720000000     0.315070000000     0.980260000000     0.42487    
C362     C      0.271700000000     0.319970000000     0.865600000000     0.434384   
C363     C      0.314970000000     0.245400000000     0.985050000000     0.429398   
C364     C      0.220720000000     0.202450000000     0.887740000000     0.422491   
C365     C      0.809590000000     0.910650000000     0.171410000000     0.432884   
C366     C      0.878720000000     0.807320000000     0.248410000000     0.428512   
C367     C      0.859390000000     0.789010000000     0.114140000000     0.416071   
C368     C      0.945120000000     0.894380000000     0.157430000000     0.41563    
C369     C      0.370220000000     0.761640000000     0.040210000000     0.0818266  
C370     C      0.134630000000     0.319260000000     0.034710000000     0.0870727  
C371     C      0.000630000000     0.919940000000     0.106150000000     0.0840635  
C372     C      0.139100000000     0.073990000000     0.922730000000     0.0911313  
C373     C      0.252390000000     0.348040000000     0.794020000000     0.0957958  
C374     C      0.032930000000     0.871900000000     0.862390000000     0.0859346  
C375     C      0.920160000000     0.264130000000     0.301520000000     0.082693   
C376     C      0.924810000000     0.170510000000     0.083670000000     0.0869467  
C377     C      0.097960000000     0.107270000000     0.312060000000     0.0902727  
C378     C      0.726500000000     0.157770000000     0.822640000000     0.0886434  
C379     C      0.901600000000     0.976120000000     0.777220000000     0.0875377  
C380     C      0.879660000000     0.091080000000     0.966510000000     0.0924339  
C381     C      0.780910000000     0.977640000000     0.200190000000     0.0916653  
C382     C      0.083150000000     0.821140000000     0.135900000000     0.0905799  
C383     C      0.053550000000     0.053530000000     0.135220000000     0.0928058  
C384     C      0.136030000000     0.939500000000     0.891290000000     0.091039   
H1       H      0.332800000000     0.232420000000     0.591860000000     0.112462   
H2       H      0.855540000000     0.700080000000     0.511840000000     0.102941   
H3       H      0.868800000000     0.295230000000     0.528320000000     0.0518012  
H4       H      0.904650000000     0.252330000000     0.541740000000     0.0278904  
H5       H      0.586660000000     0.810530000000     0.485040000000     0.113646   
H6       H      0.664720000000     0.871700000000     0.500770000000     0.107336   
H7       H      0.618490000000     0.845460000000     0.552690000000     0.0182515  
H8       H      0.652340000000     0.798530000000     0.557910000000     0.0434781  
H9       H      0.496790000000     0.432590000000     0.674830000000     0.116728   
H10      H      0.493050000000     0.488580000000     0.611810000000     0.112527   
H11      H      0.535550000000     0.412900000000     0.608620000000     0.0230001  
H12      H      0.486400000000     0.396450000000     0.583200000000     0.0500219  
H13      H      0.686990000000     0.614280000000     0.452930000000     0.112988   
H14      H      0.652060000000     0.521570000000     0.466200000000     0.108909   
H15      H      0.611480000000     0.584710000000     0.402820000000     0.0386648  
H16      H      0.665910000000     0.564230000000     0.401110000000     0.0107696  
H17      H      0.762340000000     0.287650000000     0.261360000000     0.120673   
H18      H      0.814320000000     0.853020000000     0.326080000000     0.114525   
H19      H      0.768650000000     0.866150000000     0.267760000000     0.0286547  
H20      H      0.724310000000     0.866910000000     0.305530000000     0.0480983  
H21      H      0.491070000000     0.335080000000     0.319890000000     0.109896   
H22      H      0.465150000000     0.372460000000     0.381650000000     0.110708   
H23      H      0.556190000000     0.360310000000     0.387140000000     0.0368557  
H24      H      0.549430000000     0.398110000000     0.344620000000     0.0343687  
H25      H      0.354820000000     0.286520000000     0.807250000000     0.111203   
H26      H      0.388930000000     0.711690000000     0.834400000000     0.112806   
H27      H      0.447470000000     0.767990000000     0.778590000000     0.0555621  
H28      H      0.429610000000     0.278160000000     0.833130000000     0.0209784  
H29      H      0.426180000000     0.665840000000     0.513580000000     0.102975   
H30      H      0.444510000000     0.604240000000     0.587840000000     0.117701   
H31      H      0.433470000000     0.699600000000     0.602510000000     0.0432463  
H32      H      0.389290000000     0.669390000000     0.579950000000     0.0171968  
H33      H      0.586300000000     0.147210000000     0.368030000000     0.116366   
H34      H      0.605240000000     0.115980000000     0.743040000000     0.122299   
H35      H      0.631580000000     0.595420000000     0.811220000000     0.0240761  
H36      H      0.577980000000     0.583200000000     0.329350000000     0.0401863  
H37      H      0.679320000000     0.651910000000     0.374450000000     0.11297    
H38      H      0.703040000000     0.607570000000     0.280960000000     0.112275   
H39      H      0.213320000000     0.679280000000     0.297320000000     0.028688   
H40      H      0.261900000000     0.663120000000     0.324090000000     0.0435452  
H41      H      0.355010000000     0.514180000000     0.742060000000     0.115965   
H42      H      0.362170000000     0.420080000000     0.290080000000     0.107143   
H43      H      0.419280000000     0.454930000000     0.254530000000     0.0351203  
H44      H      0.424200000000     0.485580000000     0.303430000000     0.0403124  
H45      H      0.413270000000     0.594530000000     0.405110000000     0.125351   
H46      H      0.346430000000     0.540530000000     0.500950000000     0.11594    
H47      H      0.394690000000     0.597490000000     0.498480000000     0.023625   
H48      H      0.362940000000     0.620410000000     0.455020000000     0.0299659  
H49      H      0.253850000000     0.438970000000     0.647940000000     0.124724   
H50      H      0.741450000000     0.533940000000     0.703390000000     0.112843   
H51      H      0.790230000000     0.466650000000     0.733110000000     0.0266095  
H52      H      0.306240000000     0.499880000000     0.688540000000     0.019876   
H53      H      0.564880000000     0.254110000000     0.138790000000     0.116693   
H54      H      0.530390000000     0.347070000000     0.672570000000     0.113847   
H55      H      0.617400000000     0.329470000000     0.629870000000     0.0406421  
H56      H      0.565310000000     0.320710000000     0.604780000000     0.0173884  
H57      H      0.521610000000     0.547620000000     0.697270000000     0.104724   
H58      H      0.593320000000     0.603500000000     0.664290000000     0.127172   
H59      H      0.569900000000     0.529840000000     0.613980000000     0.0425645  
H60      H      0.521420000000     0.560090000000     0.620850000000     0.0415443  
H61      H      0.179960000000     0.427360000000     0.444230000000     0.114416   
H62      H      0.654490000000     0.380780000000     0.859800000000     0.131826   
H63      H      0.612120000000     0.424290000000     0.413050000000     0.030419   
H64      H      0.624090000000     0.471570000000     0.381350000000     0.0445283  
H65      H      0.332800000000     0.232420000000     0.091860000000     0.112491   
H66      H      0.855540000000     0.700080000000     0.011840000000     0.102942   
H67      H      0.868800000000     0.295230000000     0.028320000000     0.0518153  
H68      H      0.904650000000     0.252330000000     0.041740000000     0.0279054  
H69      H      0.586660000000     0.810530000000     0.985050000000     0.113682   
H70      H      0.664720000000     0.871700000000     0.000770000000     0.107339   
H71      H      0.618490000000     0.845460000000     0.052690000000     0.0182486  
H72      H      0.652340000000     0.798530000000     0.057910000000     0.0434754  
H73      H      0.496790000000     0.432590000000     0.174830000000     0.116727   
H74      H      0.493050000000     0.488580000000     0.111810000000     0.112526   
H75      H      0.535550000000     0.412900000000     0.108620000000     0.0230009  
H76      H      0.486400000000     0.396450000000     0.083200000000     0.0500263  
H77      H      0.686990000000     0.614280000000     0.952930000000     0.112983   
H78      H      0.652060000000     0.521570000000     0.966200000000     0.108907   
H79      H      0.611480000000     0.584710000000     0.902820000000     0.0386651  
H80      H      0.665910000000     0.564230000000     0.901110000000     0.0107703  
H81      H      0.762340000000     0.287650000000     0.761360000000     0.120673   
H82      H      0.814320000000     0.853020000000     0.826080000000     0.114525   
H83      H      0.768650000000     0.866150000000     0.767760000000     0.0286548  
H84      H      0.724310000000     0.866910000000     0.805530000000     0.0480988  
H85      H      0.491070000000     0.335080000000     0.819890000000     0.109895   
H86      H      0.465150000000     0.372460000000     0.881650000000     0.110708   
H87      H      0.556190000000     0.360310000000     0.887140000000     0.0368739  
H88      H      0.549430000000     0.398110000000     0.844620000000     0.0343592  
H89      H      0.354820000000     0.286520000000     0.307250000000     0.1112     
H90      H      0.388930000000     0.711690000000     0.334400000000     0.112806   
H91      H      0.447470000000     0.767990000000     0.278590000000     0.0555588  
H92      H      0.429610000000     0.278160000000     0.333130000000     0.0209798  
H93      H      0.426180000000     0.665840000000     0.013580000000     0.102978   
H94      H      0.444510000000     0.604240000000     0.087840000000     0.117701   
H95      H      0.433470000000     0.699600000000     0.102510000000     0.043249   
H96      H      0.389290000000     0.669390000000     0.079950000000     0.017198   
H97      H      0.586300000000     0.147210000000     0.868030000000     0.116366   
H98      H      0.605240000000     0.115980000000     0.243040000000     0.122299   
H99      H      0.631580000000     0.595420000000     0.311220000000     0.0240734  
H100     H      0.577980000000     0.583200000000     0.829350000000     0.0401862  
H101     H      0.679320000000     0.651910000000     0.874450000000     0.112982   
H102     H      0.703040000000     0.607570000000     0.780960000000     0.112227   
H103     H      0.213320000000     0.679280000000     0.797320000000     0.0286798  
H104     H      0.261900000000     0.663120000000     0.824090000000     0.0435363  
H105     H      0.355010000000     0.514180000000     0.242060000000     0.115965   
H106     H      0.362170000000     0.420080000000     0.790080000000     0.107138   
H107     H      0.419280000000     0.454930000000     0.754530000000     0.0351177  
H108     H      0.424200000000     0.485580000000     0.803430000000     0.0403092  
H109     H      0.413270000000     0.594530000000     0.905110000000     0.12535    
H110     H      0.346430000000     0.540530000000     0.000950000000     0.115946   
H111     H      0.394690000000     0.597490000000     0.998480000000     0.0236204  
H112     H      0.362940000000     0.620410000000     0.955020000000     0.0299636  
H113     H      0.253850000000     0.438970000000     0.147940000000     0.12473    
H114     H      0.741450000000     0.533940000000     0.203390000000     0.112841   
H115     H      0.790230000000     0.466650000000     0.233110000000     0.0266067  
H116     H      0.306240000000     0.499880000000     0.188540000000     0.0198761  
H117     H      0.564880000000     0.254110000000     0.638790000000     0.116691   
H118     H      0.530390000000     0.347070000000     0.172570000000     0.113849   
H119     H      0.617400000000     0.329470000000     0.129870000000     0.0406428  
H120     H      0.565310000000     0.320710000000     0.104780000000     0.0173915  
H121     H      0.521610000000     0.547620000000     0.197270000000     0.104724   
H122     H      0.593320000000     0.603500000000     0.164290000000     0.127173   
H123     H      0.569900000000     0.529840000000     0.113980000000     0.0425657  
H124     H      0.521420000000     0.560090000000     0.120850000000     0.0415444  
H125     H      0.179960000000     0.427360000000     0.944230000000     0.114414   
H126     H      0.654490000000     0.380780000000     0.359800000000     0.131826   
H127     H      0.612120000000     0.424290000000     0.913050000000     0.0304188  
H128     H      0.624090000000     0.471570000000     0.881350000000     0.0445282  
H129     H      0.332800000000     0.732420000000     0.591860000000     0.112433   
H130     H      0.855540000000     0.200080000000     0.511840000000     0.10295    
H131     H      0.868800000000     0.795230000000     0.528320000000     0.0517484  
H132     H      0.904650000000     0.752330000000     0.541740000000     0.0278901  
H133     H      0.586660000000     0.310530000000     0.485040000000     0.113655   
H134     H      0.664720000000     0.371700000000     0.500770000000     0.107508   
H135     H      0.618490000000     0.345460000000     0.552690000000     0.0183044  
H136     H      0.652340000000     0.298530000000     0.557910000000     0.0434914  
H137     H      0.496790000000     0.932590000000     0.674830000000     0.116406   
H138     H      0.493050000000     0.988580000000     0.611810000000     0.111466   
H139     H      0.535550000000     0.912900000000     0.608620000000     0.0229735  
H140     H      0.486400000000     0.896450000000     0.583200000000     0.0500625  
H141     H      0.686990000000     0.114280000000     0.452930000000     0.113082   
H142     H      0.652060000000     0.021570000000     0.466200000000     0.109814   
H143     H      0.611480000000     0.084710000000     0.402820000000     0.0387044  
H144     H      0.665910000000     0.064230000000     0.401110000000     0.0110832  
H145     H      0.762340000000     0.787650000000     0.261360000000     0.120676   
H146     H      0.814320000000     0.353020000000     0.326080000000     0.114551   
H147     H      0.768650000000     0.366150000000     0.267760000000     0.0286855  
H148     H      0.724310000000     0.366910000000     0.305530000000     0.0481559  
H149     H      0.491070000000     0.835080000000     0.319890000000     0.109884   
H150     H      0.465150000000     0.872460000000     0.381650000000     0.110631   
H151     H      0.556190000000     0.860310000000     0.387140000000     0.0368737  
H152     H      0.549430000000     0.898110000000     0.344620000000     0.0343051  
H153     H      0.354820000000     0.786520000000     0.807250000000     0.111207   
H154     H      0.388930000000     0.211690000000     0.834400000000     0.1128     
H155     H      0.447470000000     0.267990000000     0.778590000000     0.0555555  
H156     H      0.429610000000     0.778160000000     0.833130000000     0.0209779  
H157     H      0.426180000000     0.165840000000     0.513580000000     0.102983   
H158     H      0.444510000000     0.104240000000     0.587840000000     0.117874   
H159     H      0.433470000000     0.199600000000     0.602510000000     0.0432369  
H160     H      0.389290000000     0.169390000000     0.579950000000     0.0172503  
H161     H      0.586300000000     0.647220000000     0.368030000000     0.116361   
H162     H      0.605240000000     0.615980000000     0.743040000000     0.122236   
H163     H      0.631580000000     0.095430000000     0.811220000000     0.0242943  
H164     H      0.577980000000     0.083210000000     0.329350000000     0.0405401  
H165     H      0.679320000000     0.151910000000     0.374450000000     0.112974   
H166     H      0.703040000000     0.107570000000     0.280960000000     0.112385   
H167     H      0.213320000000     0.179280000000     0.297320000000     0.0286907  
H168     H      0.261900000000     0.163120000000     0.324090000000     0.0435428  
H169     H      0.355010000000     0.014180000000     0.742060000000     0.116733   
H170     H      0.362170000000     0.920080000000     0.290080000000     0.107041   
H171     H      0.419280000000     0.954930000000     0.254530000000     0.0351618  
H172     H      0.424200000000     0.985580000000     0.303430000000     0.0399224  
H173     H      0.413270000000     0.094530000000     0.405110000000     0.125406   
H174     H      0.346430000000     0.040530000000     0.500950000000     0.1164     
H175     H      0.394690000000     0.097490000000     0.498480000000     0.0237128  
H176     H      0.362940000000     0.120410000000     0.455020000000     0.0299791  
H177     H      0.253850000000     0.938970000000     0.647940000000     0.124365   
H178     H      0.741450000000     0.033940000000     0.703390000000     0.112977   
H179     H      0.790230000000     0.966650000000     0.733110000000     0.0265516  
H180     H      0.306240000000     0.999880000000     0.688540000000     0.0192934  
H181     H      0.564880000000     0.754110000000     0.138790000000     0.116703   
H182     H      0.530390000000     0.847070000000     0.672570000000     0.113861   
H183     H      0.617400000000     0.829470000000     0.629870000000     0.040611   
H184     H      0.565310000000     0.820710000000     0.604780000000     0.0173855  
H185     H      0.521610000000     0.047610000000     0.697270000000     0.105286   
H186     H      0.593320000000     0.103500000000     0.664290000000     0.127257   
H187     H      0.569900000000     0.029840000000     0.613980000000     0.0432851  
H188     H      0.521420000000     0.060090000000     0.620850000000     0.0417961  
H189     H      0.179960000000     0.927360000000     0.444230000000     0.114227   
H190     H      0.654490000000     0.880780000000     0.859800000000     0.131827   
H191     H      0.612120000000     0.924290000000     0.413050000000     0.0303106  
H192     H      0.624090000000     0.971570000000     0.381350000000     0.0439281  
H193     H      0.332800000000     0.732420000000     0.091860000000     0.112462   
H194     H      0.855540000000     0.200080000000     0.011840000000     0.10295    
H195     H      0.868800000000     0.795230000000     0.028320000000     0.0517625  
H196     H      0.904650000000     0.752330000000     0.041740000000     0.0279051  
H197     H      0.586660000000     0.310530000000     0.985050000000     0.11369    
H198     H      0.664720000000     0.371700000000     0.000770000000     0.10751    
H199     H      0.618490000000     0.345460000000     0.052690000000     0.0183016  
H200     H      0.652340000000     0.298530000000     0.057910000000     0.0434887  
H201     H      0.496790000000     0.932590000000     0.174830000000     0.116406   
H202     H      0.493050000000     0.988580000000     0.111810000000     0.111466   
H203     H      0.535550000000     0.912900000000     0.108620000000     0.0229743  
H204     H      0.486400000000     0.896450000000     0.083200000000     0.0500669  
H205     H      0.686990000000     0.114280000000     0.952930000000     0.113078   
H206     H      0.652060000000     0.021570000000     0.966200000000     0.109812   
H207     H      0.611480000000     0.084710000000     0.902820000000     0.0387048  
H208     H      0.665910000000     0.064230000000     0.901110000000     0.0110839  
H209     H      0.762340000000     0.787650000000     0.761360000000     0.120676   
H210     H      0.814320000000     0.353020000000     0.826080000000     0.114551   
H211     H      0.768650000000     0.366150000000     0.767760000000     0.0286856  
H212     H      0.724310000000     0.366910000000     0.805530000000     0.0481563  
H213     H      0.491070000000     0.835080000000     0.819890000000     0.109882   
H214     H      0.465150000000     0.872460000000     0.881650000000     0.11063    
H215     H      0.556190000000     0.860310000000     0.887140000000     0.0368919  
H216     H      0.549430000000     0.898110000000     0.844620000000     0.0342956  
H217     H      0.354820000000     0.786520000000     0.307250000000     0.111203   
H218     H      0.388930000000     0.211690000000     0.334400000000     0.1128     
H219     H      0.447470000000     0.267990000000     0.278590000000     0.0555522  
H220     H      0.429610000000     0.778160000000     0.333130000000     0.0209794  
H221     H      0.426180000000     0.165840000000     0.013580000000     0.102986   
H222     H      0.444510000000     0.104240000000     0.087840000000     0.117874   
H223     H      0.433470000000     0.199600000000     0.102510000000     0.0432396  
H224     H      0.389290000000     0.169390000000     0.079950000000     0.0172515  
H225     H      0.586300000000     0.647220000000     0.868030000000     0.116361   
H226     H      0.605240000000     0.615980000000     0.243040000000     0.122235   
H227     H      0.631580000000     0.095430000000     0.311220000000     0.0242916  
H228     H      0.577980000000     0.083210000000     0.829350000000     0.04054    
H229     H      0.679320000000     0.151910000000     0.874450000000     0.112986   
H230     H      0.703040000000     0.107570000000     0.780960000000     0.112337   
H231     H      0.213320000000     0.179280000000     0.797320000000     0.0286825  
H232     H      0.261900000000     0.163120000000     0.824090000000     0.0435339  
H233     H      0.355010000000     0.014180000000     0.242060000000     0.116733   
H234     H      0.362170000000     0.920080000000     0.790080000000     0.107036   
H235     H      0.419280000000     0.954930000000     0.754530000000     0.0351592  
H236     H      0.424200000000     0.985580000000     0.803430000000     0.0399191  
H237     H      0.413270000000     0.094530000000     0.905110000000     0.125405   
H238     H      0.346430000000     0.040530000000     0.000950000000     0.116407   
H239     H      0.394690000000     0.097490000000     0.998480000000     0.0237081  
H240     H      0.362940000000     0.120410000000     0.955020000000     0.0299768  
H241     H      0.253850000000     0.938970000000     0.147940000000     0.124371   
H242     H      0.741450000000     0.033940000000     0.203390000000     0.112975   
H243     H      0.790230000000     0.966650000000     0.233110000000     0.0265487  
H244     H      0.306240000000     0.999880000000     0.188540000000     0.0192934  
H245     H      0.564880000000     0.754110000000     0.638790000000     0.116702   
H246     H      0.530390000000     0.847070000000     0.172570000000     0.113863   
H247     H      0.617400000000     0.829470000000     0.129870000000     0.0406118  
H248     H      0.565310000000     0.820710000000     0.104780000000     0.0173886  
H249     H      0.521610000000     0.047610000000     0.197270000000     0.105286   
H250     H      0.593320000000     0.103500000000     0.164290000000     0.127258   
H251     H      0.569900000000     0.029840000000     0.113980000000     0.0432862  
H252     H      0.521420000000     0.060090000000     0.120850000000     0.0417961  
H253     H      0.179960000000     0.927360000000     0.944230000000     0.114225   
H254     H      0.654490000000     0.880780000000     0.359800000000     0.131827   
H255     H      0.612120000000     0.924290000000     0.913050000000     0.0303103  
H256     H      0.624090000000     0.971570000000     0.881350000000     0.0439279  
H257     H      0.832800000000     0.232420000000     0.591860000000     0.112465   
H258     H      0.355540000000     0.700080000000     0.511840000000     0.102942   
H259     H      0.368800000000     0.295230000000     0.528320000000     0.0518022  
H260     H      0.404650000000     0.252330000000     0.541740000000     0.0279007  
H261     H      0.086660000000     0.810530000000     0.485040000000     0.113657   
H262     H      0.164720000000     0.871700000000     0.500770000000     0.107343   
H263     H      0.118490000000     0.845460000000     0.552690000000     0.0182538  
H264     H      0.152340000000     0.798530000000     0.557910000000     0.0434731  
H265     H      0.996790000000     0.432590000000     0.674830000000     0.116701   
H266     H      0.993050000000     0.488580000000     0.611810000000     0.112495   
H267     H      0.035550000000     0.412900000000     0.608620000000     0.0229743  
H268     H      0.986400000000     0.396450000000     0.583200000000     0.0499149  
H269     H      0.186990000000     0.614280000000     0.452930000000     0.112987   
H270     H      0.152060000000     0.521570000000     0.466200000000     0.10891    
H271     H      0.111480000000     0.584710000000     0.402820000000     0.0386546  
H272     H      0.165910000000     0.564230000000     0.401110000000     0.0107841  
H273     H      0.262340000000     0.287650000000     0.261360000000     0.120644   
H274     H      0.314320000000     0.853020000000     0.326080000000     0.114524   
H275     H      0.268650000000     0.866150000000     0.267760000000     0.0286548  
H276     H      0.224310000000     0.866910000000     0.305530000000     0.0481032  
H277     H      0.991080000000     0.335080000000     0.319890000000     0.109889   
H278     H      0.965140000000     0.372460000000     0.381650000000     0.110654   
H279     H      0.056190000000     0.360310000000     0.387140000000     0.0368562  
H280     H      0.049430000000     0.398110000000     0.344620000000     0.034366   
H281     H      0.854820000000     0.286520000000     0.807250000000     0.111152   
H282     H      0.888920000000     0.711690000000     0.834400000000     0.11277    
H283     H      0.947480000000     0.767990000000     0.778590000000     0.0555412  
H284     H      0.929610000000     0.278160000000     0.833130000000     0.0209571  
H285     H      0.926180000000     0.665840000000     0.513580000000     0.102964   
H286     H      0.944510000000     0.604240000000     0.587840000000     0.117682   
H287     H      0.933470000000     0.699600000000     0.602510000000     0.0432352  
H288     H      0.889290000000     0.669390000000     0.579950000000     0.0172006  
H289     H      0.086300000000     0.147210000000     0.368030000000     0.116372   
H290     H      0.105240000000     0.115980000000     0.743040000000     0.122297   
H291     H      0.131580000000     0.595420000000     0.811220000000     0.0240782  
H292     H      0.077980000000     0.583200000000     0.329350000000     0.0401941  
H293     H      0.179320000000     0.651910000000     0.374450000000     0.112971   
H294     H      0.203050000000     0.607570000000     0.280960000000     0.112299   
H295     H      0.713320000000     0.679280000000     0.297320000000     0.0286912  
H296     H      0.761900000000     0.663120000000     0.324090000000     0.043549   
H297     H      0.855010000000     0.514180000000     0.742060000000     0.115964   
H298     H      0.862170000000     0.420080000000     0.290080000000     0.107122   
H299     H      0.919280000000     0.454930000000     0.254530000000     0.0351213  
H300     H      0.924200000000     0.485580000000     0.303430000000     0.0403098  
H301     H      0.913280000000     0.594530000000     0.405110000000     0.125336   
H302     H      0.846420000000     0.540530000000     0.500950000000     0.115937   
H303     H      0.894690000000     0.597490000000     0.498480000000     0.0236301  
H304     H      0.862940000000     0.620410000000     0.455020000000     0.029958   
H305     H      0.753840000000     0.438970000000     0.647940000000     0.124686   
H306     H      0.241450000000     0.533940000000     0.703390000000     0.112843   
H307     H      0.290230000000     0.466650000000     0.733110000000     0.0265904  
H308     H      0.806240000000     0.499880000000     0.688540000000     0.0198887  
H309     H      0.064880000000     0.254110000000     0.138790000000     0.116702   
H310     H      0.030390000000     0.347070000000     0.672570000000     0.113872   
H311     H      0.117400000000     0.329470000000     0.629870000000     0.0406451  
H312     H      0.065310000000     0.320710000000     0.604780000000     0.0174031  
H313     H      0.021610000000     0.547620000000     0.697270000000     0.104754   
H314     H      0.093320000000     0.603500000000     0.664290000000     0.127173   
H315     H      0.069900000000     0.529840000000     0.613980000000     0.0425545  
H316     H      0.021420000000     0.560090000000     0.620850000000     0.0415792  
H317     H      0.679960000000     0.427360000000     0.444230000000     0.114415   
H318     H      0.154490000000     0.380780000000     0.859800000000     0.13183    
H319     H      0.112130000000     0.424290000000     0.413050000000     0.030414   
H320     H      0.124090000000     0.471570000000     0.381350000000     0.0445311  
H321     H      0.832800000000     0.232420000000     0.091860000000     0.112494   
H322     H      0.355540000000     0.700080000000     0.011840000000     0.102943   
H323     H      0.368800000000     0.295230000000     0.028320000000     0.0518162  
H324     H      0.404650000000     0.252330000000     0.041740000000     0.0279157  
H325     H      0.086660000000     0.810530000000     0.985050000000     0.113693   
H326     H      0.164720000000     0.871700000000     0.000770000000     0.107346   
H327     H      0.118490000000     0.845460000000     0.052690000000     0.0182509  
H328     H      0.152340000000     0.798530000000     0.057910000000     0.0434704  
H329     H      0.996790000000     0.432590000000     0.174830000000     0.116701   
H330     H      0.993050000000     0.488580000000     0.111810000000     0.112495   
H331     H      0.035550000000     0.412900000000     0.108620000000     0.022975   
H332     H      0.986400000000     0.396450000000     0.083200000000     0.0499193  
H333     H      0.186990000000     0.614280000000     0.952930000000     0.112983   
H334     H      0.152060000000     0.521570000000     0.966200000000     0.108908   
H335     H      0.111480000000     0.584710000000     0.902820000000     0.038655   
H336     H      0.165910000000     0.564230000000     0.901110000000     0.0107848  
H337     H      0.262340000000     0.287650000000     0.761360000000     0.120645   
H338     H      0.314320000000     0.853020000000     0.826080000000     0.114523   
H339     H      0.268650000000     0.866150000000     0.767760000000     0.0286549  
H340     H      0.224310000000     0.866910000000     0.805530000000     0.0481037  
H341     H      0.991080000000     0.335080000000     0.819890000000     0.109888   
H342     H      0.965140000000     0.372460000000     0.881650000000     0.110653   
H343     H      0.056190000000     0.360310000000     0.887140000000     0.0368744  
H344     H      0.049430000000     0.398110000000     0.844620000000     0.0343565  
H345     H      0.854820000000     0.286520000000     0.307250000000     0.111149   
H346     H      0.888920000000     0.711690000000     0.334400000000     0.11277    
H347     H      0.947480000000     0.767990000000     0.278590000000     0.0555379  
H348     H      0.929610000000     0.278160000000     0.333130000000     0.0209586  
H349     H      0.926180000000     0.665840000000     0.013580000000     0.102966   
H350     H      0.944510000000     0.604240000000     0.087840000000     0.117683   
H351     H      0.933470000000     0.699600000000     0.102510000000     0.0432378  
H352     H      0.889290000000     0.669390000000     0.079950000000     0.0172018  
H353     H      0.086300000000     0.147210000000     0.868030000000     0.116372   
H354     H      0.105240000000     0.115980000000     0.243040000000     0.122297   
H355     H      0.131580000000     0.595420000000     0.311220000000     0.0240755  
H356     H      0.077980000000     0.583200000000     0.829350000000     0.040194   
H357     H      0.179320000000     0.651910000000     0.874450000000     0.112982   
H358     H      0.203050000000     0.607570000000     0.780960000000     0.11225    
H359     H      0.713320000000     0.679280000000     0.797320000000     0.028683   
H360     H      0.761900000000     0.663120000000     0.824090000000     0.04354    
H361     H      0.855010000000     0.514180000000     0.242060000000     0.115964   
H362     H      0.862170000000     0.420080000000     0.790080000000     0.107118   
H363     H      0.919280000000     0.454930000000     0.754530000000     0.0351188  
H364     H      0.924200000000     0.485580000000     0.803430000000     0.0403066  
H365     H      0.913280000000     0.594530000000     0.905110000000     0.125336   
H366     H      0.846420000000     0.540530000000     0.000950000000     0.115944   
H367     H      0.894690000000     0.597490000000     0.998480000000     0.0236254  
H368     H      0.862940000000     0.620410000000     0.955020000000     0.0299556  
H369     H      0.753840000000     0.438970000000     0.147940000000     0.124692   
H370     H      0.241450000000     0.533940000000     0.203390000000     0.112841   
H371     H      0.290230000000     0.466650000000     0.233110000000     0.0265875  
H372     H      0.806240000000     0.499880000000     0.188540000000     0.0198888  
H373     H      0.064880000000     0.254110000000     0.638790000000     0.1167     
H374     H      0.030390000000     0.347070000000     0.172570000000     0.113874   
H375     H      0.117400000000     0.329470000000     0.129870000000     0.0406458  
H376     H      0.065310000000     0.320710000000     0.104780000000     0.0174062  
H377     H      0.021610000000     0.547620000000     0.197270000000     0.104754   
H378     H      0.093320000000     0.603500000000     0.164290000000     0.127174   
H379     H      0.069900000000     0.529840000000     0.113980000000     0.0425557  
H380     H      0.021420000000     0.560090000000     0.120850000000     0.0415793  
H381     H      0.679960000000     0.427360000000     0.944230000000     0.114413   
H382     H      0.154490000000     0.380780000000     0.359800000000     0.13183    
H383     H      0.112130000000     0.424290000000     0.913050000000     0.0304137  
H384     H      0.124090000000     0.471570000000     0.881350000000     0.044531   
H385     H      0.832800000000     0.732420000000     0.591860000000     0.112437   
H386     H      0.355540000000     0.200080000000     0.511840000000     0.102951   
H387     H      0.368800000000     0.795230000000     0.528320000000     0.0517493  
H388     H      0.404650000000     0.752330000000     0.541740000000     0.0279003  
H389     H      0.086660000000     0.310530000000     0.485040000000     0.113665   
H390     H      0.164720000000     0.371700000000     0.500770000000     0.107515   
H391     H      0.118490000000     0.345460000000     0.552690000000     0.0183068  
H392     H      0.152340000000     0.298530000000     0.557910000000     0.0434864  
H393     H      0.996790000000     0.932590000000     0.674830000000     0.11638    
H394     H      0.993050000000     0.988580000000     0.611810000000     0.111435   
H395     H      0.035550000000     0.912900000000     0.608620000000     0.0229477  
H396     H      0.986400000000     0.896450000000     0.583200000000     0.0499558  
H397     H      0.186990000000     0.114280000000     0.452930000000     0.113082   
H398     H      0.152060000000     0.021570000000     0.466200000000     0.109815   
H399     H      0.111480000000     0.084710000000     0.402820000000     0.0386942  
H400     H      0.165910000000     0.064230000000     0.401110000000     0.0110977  
H401     H      0.262340000000     0.787650000000     0.261360000000     0.120647   
H402     H      0.314320000000     0.353020000000     0.326080000000     0.11455    
H403     H      0.268650000000     0.366150000000     0.267760000000     0.0286856  
H404     H      0.224310000000     0.366910000000     0.305530000000     0.0481608  
H405     H      0.991080000000     0.835080000000     0.319890000000     0.109876   
H406     H      0.965140000000     0.872460000000     0.381650000000     0.110577   
H407     H      0.056190000000     0.860310000000     0.387140000000     0.0368742  
H408     H      0.049430000000     0.898110000000     0.344620000000     0.0343025  
H409     H      0.854820000000     0.786520000000     0.807250000000     0.111156   
H410     H      0.888920000000     0.211690000000     0.834400000000     0.112764   
H411     H      0.947480000000     0.267990000000     0.778590000000     0.0555345  
H412     H      0.929610000000     0.778160000000     0.833130000000     0.0209567  
H413     H      0.926180000000     0.165840000000     0.513580000000     0.102972   
H414     H      0.944510000000     0.104240000000     0.587840000000     0.117855   
H415     H      0.933470000000     0.199600000000     0.602510000000     0.0432257  
H416     H      0.889290000000     0.169390000000     0.579950000000     0.0172541  
H417     H      0.086300000000     0.647220000000     0.368030000000     0.116367   
H418     H      0.105240000000     0.615980000000     0.743040000000     0.122233   
H419     H      0.131580000000     0.095430000000     0.811220000000     0.0242965  
H420     H      0.077980000000     0.083210000000     0.329350000000     0.0405479  
H421     H      0.179320000000     0.151910000000     0.374450000000     0.112975   
H422     H      0.203050000000     0.107570000000     0.280960000000     0.112409   
H423     H      0.713320000000     0.179280000000     0.297320000000     0.0286939  
H424     H      0.761900000000     0.163120000000     0.324090000000     0.0435466  
H425     H      0.855010000000     0.014180000000     0.742060000000     0.116732   
H426     H      0.862170000000     0.920080000000     0.290080000000     0.10702    
H427     H      0.919280000000     0.954930000000     0.254530000000     0.035163   
H428     H      0.924200000000     0.985580000000     0.303430000000     0.0399201  
H429     H      0.913280000000     0.094530000000     0.405110000000     0.125391   
H430     H      0.846420000000     0.040530000000     0.500950000000     0.116397   
H431     H      0.894690000000     0.097490000000     0.498480000000     0.0237178  
H432     H      0.862940000000     0.120410000000     0.455020000000     0.0299711  
H433     H      0.753840000000     0.938970000000     0.647940000000     0.124327   
H434     H      0.241450000000     0.033940000000     0.703390000000     0.112978   
H435     H      0.290230000000     0.966650000000     0.733110000000     0.0265326  
H436     H      0.806240000000     0.999880000000     0.688540000000     0.0193061  
H437     H      0.064880000000     0.754110000000     0.138790000000     0.116712   
H438     H      0.030390000000     0.847070000000     0.672570000000     0.113886   
H439     H      0.117400000000     0.829470000000     0.629870000000     0.040614   
H440     H      0.065310000000     0.820710000000     0.604780000000     0.0174001  
H441     H      0.021610000000     0.047610000000     0.697270000000     0.105316   
H442     H      0.093320000000     0.103500000000     0.664290000000     0.127258   
H443     H      0.069900000000     0.029840000000     0.613980000000     0.0432751  
H444     H      0.021420000000     0.060090000000     0.620850000000     0.041831   
H445     H      0.679960000000     0.927360000000     0.444230000000     0.114226   
H446     H      0.154490000000     0.880780000000     0.859800000000     0.131831   
H447     H      0.112130000000     0.924290000000     0.413050000000     0.0303055  
H448     H      0.124090000000     0.971570000000     0.381350000000     0.0439308  
H449     H      0.832800000000     0.732420000000     0.091860000000     0.112465   
H450     H      0.355540000000     0.200080000000     0.011840000000     0.102951   
H451     H      0.368800000000     0.795230000000     0.028320000000     0.0517634  
H452     H      0.404650000000     0.752330000000     0.041740000000     0.0279153  
H453     H      0.086660000000     0.310530000000     0.985050000000     0.113701   
H454     H      0.164720000000     0.371700000000     0.000770000000     0.107518   
H455     H      0.118490000000     0.345460000000     0.052690000000     0.0183039  
H456     H      0.152340000000     0.298530000000     0.057910000000     0.0434836  
H457     H      0.996790000000     0.932590000000     0.174830000000     0.11638    
H458     H      0.993050000000     0.988580000000     0.111810000000     0.111435   
H459     H      0.035550000000     0.912900000000     0.108620000000     0.0229485  
H460     H      0.986400000000     0.896450000000     0.083200000000     0.0499602  
H461     H      0.186990000000     0.114280000000     0.952930000000     0.113077   
H462     H      0.152060000000     0.021570000000     0.966200000000     0.109813   
H463     H      0.111480000000     0.084710000000     0.902820000000     0.0386946  
H464     H      0.165910000000     0.064230000000     0.901110000000     0.0110984  
H465     H      0.262340000000     0.787650000000     0.761360000000     0.120648   
H466     H      0.314320000000     0.353020000000     0.826080000000     0.114549   
H467     H      0.268650000000     0.366150000000     0.767760000000     0.0286857  
H468     H      0.224310000000     0.366910000000     0.805530000000     0.0481612  
H469     H      0.991080000000     0.835080000000     0.819890000000     0.109875   
H470     H      0.965140000000     0.872460000000     0.881650000000     0.110576   
H471     H      0.056190000000     0.860310000000     0.887140000000     0.0368924  
H472     H      0.049430000000     0.898110000000     0.844620000000     0.034293   
H473     H      0.854820000000     0.786520000000     0.307250000000     0.111152   
H474     H      0.888920000000     0.211690000000     0.334400000000     0.112764   
H475     H      0.947480000000     0.267990000000     0.278590000000     0.0555312  
H476     H      0.929610000000     0.778160000000     0.333130000000     0.0209582  
H477     H      0.926180000000     0.165840000000     0.013580000000     0.102975   
H478     H      0.944510000000     0.104240000000     0.087840000000     0.117856   
H479     H      0.933470000000     0.199600000000     0.102510000000     0.0432284  
H480     H      0.889290000000     0.169390000000     0.079950000000     0.0172553  
H481     H      0.086300000000     0.647220000000     0.868030000000     0.116367   
H482     H      0.105240000000     0.615980000000     0.243040000000     0.122233   
H483     H      0.131580000000     0.095430000000     0.311220000000     0.0242937  
H484     H      0.077980000000     0.083210000000     0.829350000000     0.0405478  
H485     H      0.179320000000     0.151910000000     0.874450000000     0.112986   
H486     H      0.203050000000     0.107570000000     0.780960000000     0.112361   
H487     H      0.713320000000     0.179280000000     0.797320000000     0.0286858  
H488     H      0.761900000000     0.163120000000     0.824090000000     0.0435377  
H489     H      0.855010000000     0.014180000000     0.242060000000     0.116731   
H490     H      0.862170000000     0.920080000000     0.790080000000     0.107016   
H491     H      0.919280000000     0.954930000000     0.754530000000     0.0351605  
H492     H      0.924200000000     0.985580000000     0.803430000000     0.0399168  
H493     H      0.913280000000     0.094530000000     0.905110000000     0.125391   
H494     H      0.846420000000     0.040530000000     0.000950000000     0.116404   
H495     H      0.894690000000     0.097490000000     0.998480000000     0.0237132  
H496     H      0.862940000000     0.120410000000     0.955020000000     0.0299688  
H497     H      0.753840000000     0.938970000000     0.147940000000     0.124333   
H498     H      0.241450000000     0.033940000000     0.203390000000     0.112976   
H499     H      0.290230000000     0.966650000000     0.233110000000     0.0265297  
H500     H      0.806240000000     0.999880000000     0.188540000000     0.0193062  
H501     H      0.064880000000     0.754110000000     0.638790000000     0.116711   
H502     H      0.030390000000     0.847070000000     0.172570000000     0.113888   
H503     H      0.117400000000     0.829470000000     0.129870000000     0.0406147  
H504     H      0.065310000000     0.820710000000     0.104780000000     0.0174033  
H505     H      0.021610000000     0.047610000000     0.197270000000     0.105316   
H506     H      0.093320000000     0.103500000000     0.164290000000     0.127259   
H507     H      0.069900000000     0.029840000000     0.113980000000     0.0432762  
H508     H      0.021420000000     0.060090000000     0.120850000000     0.0418311  
H509     H      0.679960000000     0.927360000000     0.944230000000     0.114224   
H510     H      0.154490000000     0.880780000000     0.359800000000     0.131831   
H511     H      0.112130000000     0.924290000000     0.913050000000     0.0303052  
H512     H      0.124090000000     0.971570000000     0.881350000000     0.0439307  
In1      In     0.624780000000     0.446650000000     0.729090000000     2.46075    
In2      In     0.276690000000     0.514160000000     0.370880000000     2.37968    
In3      In     0.456000000000     0.621930000000     0.735840000000     2.41736    
In4      In     0.615810000000     0.263110000000     0.279830000000     2.44391    
In5      In     0.505800000000     0.492180000000     0.462680000000     2.41692    
In6      In     0.573840000000     0.670950000000     0.531850000000     2.46592    
In7      In     0.749970000000     0.770370000000     0.432680000000     2.42837    
In8      In     0.372100000000     0.350650000000     0.673500000000     2.40416    
In9      In     0.624780000000     0.446650000000     0.229090000000     2.46074    
In10     In     0.276690000000     0.514160000000     0.870880000000     2.37968    
In11     In     0.456000000000     0.621930000000     0.235840000000     2.41736    
In12     In     0.615810000000     0.263110000000     0.779830000000     2.44391    
In13     In     0.505800000000     0.492180000000     0.962680000000     2.41695    
In14     In     0.573840000000     0.670950000000     0.031850000000     2.46594    
In15     In     0.749970000000     0.770370000000     0.932680000000     2.42837    
In16     In     0.372100000000     0.350650000000     0.173490000000     2.40425    
In17     In     0.624780000000     0.946650000000     0.729090000000     2.45892    
In18     In     0.276690000000     0.014160000000     0.370880000000     2.38509    
In19     In     0.456000000000     0.121930000000     0.735840000000     2.41742    
In20     In     0.615810000000     0.763110000000     0.279830000000     2.44395    
In21     In     0.505800000000     0.992180000000     0.462680000000     2.40981    
In22     In     0.573840000000     0.170950000000     0.531850000000     2.46578    
In23     In     0.749970000000     0.270370000000     0.432680000000     2.42821    
In24     In     0.372100000000     0.850650000000     0.673500000000     2.40422    
In25     In     0.624780000000     0.946650000000     0.229090000000     2.45892    
In26     In     0.276690000000     0.014160000000     0.870880000000     2.38509    
In27     In     0.456000000000     0.121930000000     0.235840000000     2.41742    
In28     In     0.615810000000     0.763110000000     0.779830000000     2.44396    
In29     In     0.505800000000     0.992180000000     0.962680000000     2.40984    
In30     In     0.573840000000     0.170950000000     0.031850000000     2.46579    
In31     In     0.749970000000     0.270370000000     0.932680000000     2.42822    
In32     In     0.372100000000     0.850650000000     0.173490000000     2.4043     
In33     In     0.124780000000     0.446650000000     0.729090000000     2.46059    
In34     In     0.776690000000     0.514160000000     0.370880000000     2.37968    
In35     In     0.956000000000     0.621930000000     0.735840000000     2.41721    
In36     In     0.115810000000     0.263110000000     0.279830000000     2.44383    
In37     In     0.005800000000     0.492180000000     0.462680000000     2.41708    
In38     In     0.073840000000     0.670950000000     0.531850000000     2.46578    
In39     In     0.249970000000     0.770370000000     0.432680000000     2.42832    
In40     In     0.872100000000     0.350650000000     0.673500000000     2.40402    
In41     In     0.124780000000     0.446650000000     0.229090000000     2.46059    
In42     In     0.776690000000     0.514160000000     0.870880000000     2.37968    
In43     In     0.956000000000     0.621930000000     0.235840000000     2.41721    
In44     In     0.115810000000     0.263110000000     0.779830000000     2.44384    
In45     In     0.005800000000     0.492180000000     0.962680000000     2.41712    
In46     In     0.073840000000     0.670950000000     0.031850000000     2.4658     
In47     In     0.249970000000     0.770370000000     0.932680000000     2.42832    
In48     In     0.872100000000     0.350650000000     0.173490000000     2.4041     
In49     In     0.124780000000     0.946650000000     0.729090000000     2.45877    
In50     In     0.776690000000     0.014160000000     0.370880000000     2.38509    
In51     In     0.956000000000     0.121930000000     0.735840000000     2.41727    
In52     In     0.115810000000     0.763110000000     0.279830000000     2.44388    
In53     In     0.005800000000     0.992180000000     0.462680000000     2.40998    
In54     In     0.073840000000     0.170950000000     0.531850000000     2.46563    
In55     In     0.249970000000     0.270370000000     0.432680000000     2.42816    
In56     In     0.872100000000     0.850650000000     0.673500000000     2.40407    
In57     In     0.124780000000     0.946650000000     0.229090000000     2.45876    
In58     In     0.776690000000     0.014160000000     0.870880000000     2.38509    
In59     In     0.956000000000     0.121930000000     0.235840000000     2.41727    
In60     In     0.115810000000     0.763110000000     0.779830000000     2.44388    
In61     In     0.005800000000     0.992180000000     0.962680000000     2.41001    
In62     In     0.073840000000     0.170950000000     0.031850000000     2.46565    
In63     In     0.249970000000     0.270370000000     0.932680000000     2.42817    
In64     In     0.872100000000     0.850650000000     0.173490000000     2.40416    
N1       N      0.847410000000     0.732500000000     0.511200000000    -0.227315   
N2       N      0.352040000000     0.258690000000     0.583770000000    -0.222174   
N3       N      0.664790000000     0.838430000000     0.504190000000    -0.225342   
N4       N      0.601890000000     0.795260000000     0.510960000000    -0.221532   
N5       N      0.496310000000     0.463520000000     0.589710000000    -0.224095   
N6       N      0.481470000000     0.416890000000     0.649280000000    -0.226447   
N7       N      0.627330000000     0.537570000000     0.449960000000    -0.225494   
N8       N      0.653880000000     0.608910000000     0.450280000000    -0.227429   
N9       N      0.782700000000     0.842180000000     0.329690000000    -0.223487   
N10      N      0.739170000000     0.306060000000     0.277310000000    -0.221199   
N11      N      0.494460000000     0.388710000000     0.384000000000    -0.228275   
N12      N      0.522420000000     0.337640000000     0.331910000000    -0.225011   
N13      N      0.409570000000     0.719130000000     0.808770000000    -0.223256   
N14      N      0.381570000000     0.286520000000     0.786750000000    -0.225616   
N15      N      0.438830000000     0.631740000000     0.606270000000    -0.223026   
N16      N      0.444940000000     0.672080000000     0.540870000000    -0.225441   
N17      N      0.582420000000     0.612950000000     0.767700000000    -0.219956   
N18      N      0.596950000000     0.147850000000     0.335980000000    -0.226563   
N19      N      0.218100000000     0.613320000000     0.310630000000    -0.226964   
N20      N      0.706550000000     0.668650000000     0.364190000000    -0.222804   
N21      N      0.365060000000     0.452880000000     0.295990000000    -0.227576   
N22      N      0.386440000000     0.514050000000     0.753890000000    -0.218381   
N23      N      0.348430000000     0.556360000000     0.471240000000    -0.219343   
N24      N      0.412880000000     0.579100000000     0.435100000000    -0.221639   
N25      N      0.740090000000     0.500520000000     0.703050000000    -0.227692   
N26      N      0.278610000000     0.441080000000     0.670740000000    -0.224425   
N27      N      0.562770000000     0.352100000000     0.664960000000    -0.223471   
N28      N      0.580860000000     0.278570000000     0.155350000000    -0.224719   
N29      N      0.578650000000     0.593240000000     0.635700000000    -0.219664   
N30      N      0.547790000000     0.537000000000     0.679140000000    -0.223565   
N31      N      0.642410000000     0.411460000000     0.853970000000    -0.224077   
N32      N      0.176540000000     0.443720000000     0.414960000000    -0.223046   
N33      N      0.847410000000     0.732500000000     0.011200000000    -0.227306   
N34      N      0.352040000000     0.258690000000     0.083780000000    -0.22222    
N35      N      0.664790000000     0.838430000000     0.004190000000    -0.225342   
N36      N      0.601890000000     0.795260000000     0.010960000000    -0.221586   
N37      N      0.496310000000     0.463520000000     0.089710000000    -0.224094   
N38      N      0.481470000000     0.416890000000     0.149280000000    -0.226446   
N39      N      0.627330000000     0.537570000000     0.949960000000    -0.225495   
N40      N      0.653880000000     0.608910000000     0.950280000000    -0.227428   
N41      N      0.782700000000     0.842180000000     0.829690000000    -0.223487   
N42      N      0.739170000000     0.306060000000     0.777310000000    -0.221199   
N43      N      0.494460000000     0.388710000000     0.884010000000    -0.228285   
N44      N      0.522420000000     0.337640000000     0.831910000000    -0.225019   
N45      N      0.409570000000     0.719130000000     0.308770000000    -0.223254   
N46      N      0.381570000000     0.286520000000     0.286750000000    -0.2256     
N47      N      0.438830000000     0.631740000000     0.106270000000    -0.223026   
N48      N      0.444940000000     0.672080000000     0.040870000000    -0.225441   
N49      N      0.582420000000     0.612950000000     0.267700000000    -0.219956   
N50      N      0.596950000000     0.147850000000     0.835980000000    -0.226563   
N51      N      0.218100000000     0.613320000000     0.810640000000    -0.226953   
N52      N      0.706550000000     0.668650000000     0.864190000000    -0.222843   
N53      N      0.365060000000     0.452880000000     0.795990000000    -0.227577   
N54      N      0.386440000000     0.514050000000     0.253890000000    -0.218381   
N55      N      0.348430000000     0.556360000000     0.971240000000    -0.219348   
N56      N      0.412880000000     0.579100000000     0.935100000000    -0.22164    
N57      N      0.740090000000     0.500520000000     0.203050000000    -0.227677   
N58      N      0.278610000000     0.441080000000     0.170740000000    -0.224424   
N59      N      0.562770000000     0.352100000000     0.164960000000    -0.223471   
N60      N      0.580860000000     0.278570000000     0.655350000000    -0.224719   
N61      N      0.578650000000     0.593240000000     0.135700000000    -0.219663   
N62      N      0.547790000000     0.537000000000     0.179140000000    -0.223565   
N63      N      0.642410000000     0.411460000000     0.353970000000    -0.224077   
N64      N      0.176540000000     0.443720000000     0.914960000000    -0.223046   
N65      N      0.847410000000     0.232500000000     0.511200000000    -0.22726    
N66      N      0.352040000000     0.758690000000     0.583770000000    -0.22218    
N67      N      0.664790000000     0.338440000000     0.504190000000    -0.22535    
N68      N      0.601890000000     0.295270000000     0.510960000000    -0.221506   
N69      N      0.496310000000     0.963520000000     0.589710000000    -0.223631   
N70      N      0.481470000000     0.916890000000     0.649280000000    -0.226444   
N71      N      0.627330000000     0.037570000000     0.449960000000    -0.225847   
N72      N      0.653880000000     0.108910000000     0.450280000000    -0.227479   
N73      N      0.782700000000     0.342180000000     0.329690000000    -0.223471   
N74      N      0.739170000000     0.806060000000     0.277310000000    -0.221198   
N75      N      0.494460000000     0.888720000000     0.384000000000    -0.228324   
N76      N      0.522420000000     0.837640000000     0.331910000000    -0.225005   
N77      N      0.409570000000     0.219130000000     0.808770000000    -0.223257   
N78      N      0.381570000000     0.786520000000     0.786750000000    -0.225615   
N79      N      0.438830000000     0.131740000000     0.606270000000    -0.223004   
N80      N      0.444940000000     0.172080000000     0.540870000000    -0.225441   
N81      N      0.582420000000     0.112950000000     0.767700000000    -0.219876   
N82      N      0.596950000000     0.647850000000     0.335980000000    -0.22657    
N83      N      0.218100000000     0.113320000000     0.310630000000    -0.226938   
N84      N      0.706550000000     0.168650000000     0.364190000000    -0.222805   
N85      N      0.365060000000     0.952880000000     0.295990000000    -0.22713    
N86      N      0.386440000000     0.014050000000     0.753890000000    -0.217204   
N87      N      0.348430000000     0.056360000000     0.471240000000    -0.219252   
N88      N      0.412880000000     0.079100000000     0.435100000000    -0.2215     
N89      N      0.740090000000     0.000520000000     0.703050000000    -0.224685   
N90      N      0.278610000000     0.941080000000     0.670740000000    -0.22424    
N91      N      0.562770000000     0.852100000000     0.664960000000    -0.223527   
N92      N      0.580860000000     0.778570000000     0.155350000000    -0.224718   
N93      N      0.578650000000     0.093240000000     0.635700000000    -0.219648   
N94      N      0.547790000000     0.037000000000     0.679140000000    -0.224352   
N95      N      0.642410000000     0.911460000000     0.853970000000    -0.224118   
N96      N      0.176540000000     0.943720000000     0.414960000000    -0.223295   
N97      N      0.847410000000     0.232500000000     0.011200000000    -0.22725    
N98      N      0.352040000000     0.758690000000     0.083780000000    -0.222226   
N99      N      0.664790000000     0.338440000000     0.004190000000    -0.22535    
N100     N      0.601890000000     0.295270000000     0.010960000000    -0.22156    
N101     N      0.496310000000     0.963520000000     0.089710000000    -0.22363    
N102     N      0.481470000000     0.916890000000     0.149280000000    -0.226443   
N103     N      0.627330000000     0.037570000000     0.949960000000    -0.225848   
N104     N      0.653880000000     0.108910000000     0.950280000000    -0.227477   
N105     N      0.782700000000     0.342180000000     0.829690000000    -0.223471   
N106     N      0.739170000000     0.806060000000     0.777310000000    -0.221198   
N107     N      0.494460000000     0.888720000000     0.884010000000    -0.228334   
N108     N      0.522420000000     0.837640000000     0.831910000000    -0.225013   
N109     N      0.409570000000     0.219130000000     0.308770000000    -0.223256   
N110     N      0.381570000000     0.786520000000     0.286750000000    -0.225599   
N111     N      0.438830000000     0.131740000000     0.106270000000    -0.223004   
N112     N      0.444940000000     0.172080000000     0.040870000000    -0.22544    
N113     N      0.582420000000     0.112950000000     0.267700000000    -0.219876   
N114     N      0.596950000000     0.647850000000     0.835980000000    -0.22657    
N115     N      0.218100000000     0.113320000000     0.810640000000    -0.226928   
N116     N      0.706550000000     0.168650000000     0.864190000000    -0.222844   
N117     N      0.365060000000     0.952880000000     0.795990000000    -0.227131   
N118     N      0.386440000000     0.014050000000     0.253890000000    -0.217204   
N119     N      0.348430000000     0.056360000000     0.971240000000    -0.219258   
N120     N      0.412880000000     0.079100000000     0.935100000000    -0.221501   
N121     N      0.740090000000     0.000520000000     0.203050000000    -0.22467    
N122     N      0.278610000000     0.941080000000     0.170740000000    -0.224239   
N123     N      0.562770000000     0.852100000000     0.164960000000    -0.223526   
N124     N      0.580860000000     0.778570000000     0.655350000000    -0.224718   
N125     N      0.578650000000     0.093240000000     0.135700000000    -0.219647   
N126     N      0.547790000000     0.037000000000     0.179140000000    -0.224352   
N127     N      0.642410000000     0.911460000000     0.353970000000    -0.224118   
N128     N      0.176540000000     0.943720000000     0.914960000000    -0.223295   
N129     N      0.347410000000     0.732500000000     0.511200000000    -0.227316   
N130     N      0.852040000000     0.258690000000     0.583770000000    -0.222162   
N131     N      0.164790000000     0.838430000000     0.504190000000    -0.225366   
N132     N      0.101890000000     0.795260000000     0.510960000000    -0.221531   
N133     N      0.996310000000     0.463520000000     0.589710000000    -0.224122   
N134     N      0.981470000000     0.416890000000     0.649280000000    -0.226507   
N135     N      0.127330000000     0.537570000000     0.449960000000    -0.225496   
N136     N      0.153880000000     0.608910000000     0.450280000000    -0.227424   
N137     N      0.282700000000     0.842180000000     0.329690000000    -0.223487   
N138     N      0.239160000000     0.306060000000     0.277310000000    -0.221224   
N139     N      0.994460000000     0.388710000000     0.384000000000    -0.228302   
N140     N      0.022420000000     0.337640000000     0.331910000000    -0.224967   
N141     N      0.909570000000     0.719130000000     0.808770000000    -0.223212   
N142     N      0.881580000000     0.286520000000     0.786750000000    -0.225582   
N143     N      0.938830000000     0.631740000000     0.606270000000    -0.223028   
N144     N      0.944940000000     0.672080000000     0.540870000000    -0.225412   
N145     N      0.082420000000     0.612950000000     0.767700000000    -0.21995    
N146     N      0.096950000000     0.147850000000     0.335980000000    -0.226562   
N147     N      0.718100000000     0.613320000000     0.310630000000    -0.226938   
N148     N      0.206550000000     0.668650000000     0.364190000000    -0.222804   
N149     N      0.865070000000     0.452880000000     0.295990000000    -0.227511   
N150     N      0.886440000000     0.514050000000     0.753890000000    -0.21837    
N151     N      0.848430000000     0.556360000000     0.471240000000    -0.219343   
N152     N      0.912880000000     0.579100000000     0.435100000000    -0.221616   
N153     N      0.240090000000     0.500520000000     0.703050000000    -0.227719   
N154     N      0.778610000000     0.441080000000     0.670740000000    -0.224347   
N155     N      0.062770000000     0.352100000000     0.664960000000    -0.223427   
N156     N      0.080860000000     0.278570000000     0.155350000000    -0.224697   
N157     N      0.078650000000     0.593240000000     0.635700000000    -0.219674   
N158     N      0.047790000000     0.537000000000     0.679140000000    -0.223566   
N159     N      0.142410000000     0.411460000000     0.853970000000    -0.224076   
N160     N      0.676540000000     0.443720000000     0.414960000000    -0.223046   
N161     N      0.347410000000     0.732500000000     0.011200000000    -0.227307   
N162     N      0.852040000000     0.258690000000     0.083780000000    -0.222208   
N163     N      0.164790000000     0.838430000000     0.004190000000    -0.225366   
N164     N      0.101890000000     0.795260000000     0.010960000000    -0.221585   
N165     N      0.996310000000     0.463520000000     0.089710000000    -0.224121   
N166     N      0.981470000000     0.416890000000     0.149280000000    -0.226506   
N167     N      0.127330000000     0.537570000000     0.949960000000    -0.225496   
N168     N      0.153880000000     0.608910000000     0.950280000000    -0.227423   
N169     N      0.282700000000     0.842180000000     0.829690000000    -0.223486   
N170     N      0.239160000000     0.306060000000     0.777310000000    -0.221224   
N171     N      0.994460000000     0.388710000000     0.884010000000    -0.228313   
N172     N      0.022420000000     0.337640000000     0.831910000000    -0.224975   
N173     N      0.909570000000     0.719130000000     0.308770000000    -0.22321    
N174     N      0.881580000000     0.286520000000     0.286750000000    -0.225566   
N175     N      0.938830000000     0.631740000000     0.106270000000    -0.223027   
N176     N      0.944940000000     0.672080000000     0.040870000000    -0.225412   
N177     N      0.082420000000     0.612950000000     0.267700000000    -0.21995    
N178     N      0.096950000000     0.147850000000     0.835980000000    -0.226562   
N179     N      0.718100000000     0.613320000000     0.810640000000    -0.226928   
N180     N      0.206550000000     0.668650000000     0.864190000000    -0.222843   
N181     N      0.865070000000     0.452880000000     0.795990000000    -0.227512   
N182     N      0.886440000000     0.514050000000     0.253890000000    -0.21837    
N183     N      0.848430000000     0.556360000000     0.971240000000    -0.219348   
N184     N      0.912880000000     0.579100000000     0.935100000000    -0.221617   
N185     N      0.240090000000     0.500520000000     0.203050000000    -0.227704   
N186     N      0.778610000000     0.441080000000     0.170740000000    -0.224346   
N187     N      0.062770000000     0.352100000000     0.164960000000    -0.223427   
N188     N      0.080860000000     0.278570000000     0.655350000000    -0.224697   
N189     N      0.078650000000     0.593240000000     0.135700000000    -0.219674   
N190     N      0.047790000000     0.537000000000     0.179140000000    -0.223566   
N191     N      0.142410000000     0.411460000000     0.353970000000    -0.224076   
N192     N      0.676540000000     0.443720000000     0.914960000000    -0.223046   
N193     N      0.347410000000     0.232500000000     0.511200000000    -0.227261   
N194     N      0.852040000000     0.758690000000     0.583770000000    -0.222169   
N195     N      0.164790000000     0.338440000000     0.504190000000    -0.225374   
N196     N      0.101890000000     0.295270000000     0.510960000000    -0.221506   
N197     N      0.996310000000     0.963520000000     0.589710000000    -0.223658   
N198     N      0.981470000000     0.916890000000     0.649280000000    -0.226504   
N199     N      0.127330000000     0.037570000000     0.449960000000    -0.225849   
N200     N      0.153880000000     0.108910000000     0.450280000000    -0.227474   
N201     N      0.282700000000     0.342180000000     0.329690000000    -0.223471   
N202     N      0.239160000000     0.806060000000     0.277310000000    -0.221223   
N203     N      0.994460000000     0.888720000000     0.384000000000    -0.228351   
N204     N      0.022420000000     0.837640000000     0.331910000000    -0.224961   
N205     N      0.909570000000     0.219130000000     0.808770000000    -0.223214   
N206     N      0.881580000000     0.786520000000     0.786750000000    -0.225581   
N207     N      0.938830000000     0.131740000000     0.606270000000    -0.223006   
N208     N      0.944940000000     0.172080000000     0.540870000000    -0.225412   
N209     N      0.082420000000     0.112950000000     0.767700000000    -0.219871   
N210     N      0.096950000000     0.647850000000     0.335980000000    -0.226568   
N211     N      0.718100000000     0.113320000000     0.310630000000    -0.226913   
N212     N      0.206550000000     0.168650000000     0.364190000000    -0.222806   
N213     N      0.865070000000     0.952880000000     0.295990000000    -0.227066   
N214     N      0.886440000000     0.014050000000     0.753890000000    -0.217193   
N215     N      0.848430000000     0.056360000000     0.471240000000    -0.219253   
N216     N      0.912880000000     0.079100000000     0.435100000000    -0.221477   
N217     N      0.240090000000     0.000520000000     0.703050000000    -0.224711   
N218     N      0.778610000000     0.941080000000     0.670740000000    -0.224162   
N219     N      0.062770000000     0.852100000000     0.664960000000    -0.223483   
N220     N      0.080860000000     0.778570000000     0.155350000000    -0.224696   
N221     N      0.078650000000     0.093240000000     0.635700000000    -0.219659   
N222     N      0.047790000000     0.037000000000     0.679140000000    -0.224353   
N223     N      0.142410000000     0.911460000000     0.853970000000    -0.224116   
N224     N      0.676540000000     0.943720000000     0.414960000000    -0.223295   
N225     N      0.347410000000     0.232500000000     0.011200000000    -0.227251   
N226     N      0.852040000000     0.758690000000     0.083780000000    -0.222214   
N227     N      0.164790000000     0.338440000000     0.004190000000    -0.225374   
N228     N      0.101890000000     0.295270000000     0.010960000000    -0.22156    
N229     N      0.996310000000     0.963520000000     0.089710000000    -0.223657   
N230     N      0.981470000000     0.916890000000     0.149280000000    -0.226503   
N231     N      0.127330000000     0.037570000000     0.949960000000    -0.225849   
N232     N      0.153880000000     0.108910000000     0.950280000000    -0.227473   
N233     N      0.282700000000     0.342180000000     0.829690000000    -0.223471   
N234     N      0.239160000000     0.806060000000     0.777310000000    -0.221223   
N235     N      0.994460000000     0.888720000000     0.884010000000    -0.228361   
N236     N      0.022420000000     0.837640000000     0.831910000000    -0.224969   
N237     N      0.909570000000     0.219130000000     0.308770000000    -0.223212   
N238     N      0.881580000000     0.786520000000     0.286750000000    -0.225565   
N239     N      0.938830000000     0.131740000000     0.106270000000    -0.223006   
N240     N      0.944940000000     0.172080000000     0.040870000000    -0.225412   
N241     N      0.082420000000     0.112950000000     0.267700000000    -0.219871   
N242     N      0.096950000000     0.647850000000     0.835980000000    -0.226568   
N243     N      0.718100000000     0.113320000000     0.810640000000    -0.226902   
N244     N      0.206550000000     0.168650000000     0.864190000000    -0.222844   
N245     N      0.865070000000     0.952880000000     0.795990000000    -0.227067   
N246     N      0.886440000000     0.014050000000     0.253890000000    -0.217193   
N247     N      0.848430000000     0.056360000000     0.971240000000    -0.219258   
N248     N      0.912880000000     0.079100000000     0.935100000000    -0.221478   
N249     N      0.240090000000     0.000520000000     0.203050000000    -0.224697   
N250     N      0.778610000000     0.941080000000     0.170740000000    -0.224162   
N251     N      0.062770000000     0.852100000000     0.164960000000    -0.223483   
N252     N      0.080860000000     0.778570000000     0.655350000000    -0.224696   
N253     N      0.078650000000     0.093240000000     0.135700000000    -0.219658   
N254     N      0.047790000000     0.037000000000     0.179140000000    -0.224353   
N255     N      0.142410000000     0.911460000000     0.353970000000    -0.224117   
N256     N      0.676540000000     0.943720000000     0.914960000000    -0.223295   
O1       O      0.604160000000     0.490190000000     0.675070000000    -0.511897   
O2       O      0.569130000000     0.493590000000     0.734850000000    -0.495318   
O3       O      0.566530000000     0.404990000000     0.715670000000    -0.523846   
O4       O      0.696080000000     0.441560000000     0.710610000000    -0.501111   
O5       O      0.619860000000     0.459500000000     0.802080000000    -0.498998   
O6       O      0.669670000000     0.503370000000     0.722860000000    -0.507958   
O7       O      0.623430000000     0.392410000000     0.679120000000    -0.496551   
O8       O      0.643910000000     0.399130000000     0.781270000000    -0.515114   
O9       O      0.297840000000     0.511850000000     0.441710000000    -0.475002   
O10      O      0.324100000000     0.560670000000     0.401390000000    -0.478182   
O11      O      0.303980000000     0.453390000000     0.337780000000    -0.510177   
O12      O      0.244890000000     0.470340000000     0.420620000000    -0.473454   
O13      O      0.254100000000     0.583780000000     0.368210000000    -0.491519   
O14      O      0.208270000000     0.488020000000     0.365060000000    -0.492181   
O15      O      0.336880000000     0.511990000000     0.329150000000    -0.510796   
O16      O      0.237980000000     0.543080000000     0.315310000000    -0.498021   
O17      O      0.527770000000     0.625470000000     0.719880000000    -0.508528   
O18      O      0.510500000000     0.610830000000     0.784720000000    -0.495801   
O19      O      0.394280000000     0.583210000000     0.731770000000    -0.506206   
O20      O      0.414550000000     0.648490000000     0.790590000000    -0.502673   
O21      O      0.458300000000     0.595630000000     0.667330000000    -0.513541   
O22      O      0.449910000000     0.692920000000     0.752390000000    -0.495023   
O23      O      0.449020000000     0.552910000000     0.760080000000    -0.492874   
O24      O      0.437660000000     0.660200000000     0.675030000000    -0.487992   
O25      O      0.687670000000     0.255200000000     0.264180000000    -0.512066   
O26      O      0.668520000000     0.310570000000     0.298980000000    -0.484361   
O27      O      0.603040000000     0.220790000000     0.339090000000    -0.514963   
O28      O      0.545740000000     0.285380000000     0.285540000000    -0.50168    
O29      O      0.586230000000     0.237890000000     0.216710000000    -0.486826   
O30      O      0.592190000000     0.313490000000     0.327630000000    -0.493735   
O31      O      0.619160000000     0.190480000000     0.279770000000    -0.507322   
O32      O      0.613970000000     0.300160000000     0.217640000000    -0.520441   
O33      O      0.531660000000     0.444390000000     0.414050000000    -0.524277   
O34      O      0.465960000000     0.437650000000     0.431580000000    -0.499826   
O35      O      0.554510000000     0.540740000000     0.436580000000    -0.48583    
O36      O      0.444990000000     0.529630000000     0.479320000000    -0.497778   
O37      O      0.501660000000     0.444400000000     0.518170000000    -0.504001   
O38      O      0.472980000000     0.540340000000     0.417390000000    -0.490153   
O39      O      0.577550000000     0.491940000000     0.478600000000    -0.507058   
O40      O      0.500800000000     0.510990000000     0.533700000000    -0.492565   
O41      O      0.507100000000     0.666380000000     0.501280000000    -0.492855   
O42      O      0.512320000000     0.683330000000     0.568260000000    -0.51541    
O43      O      0.607780000000     0.733060000000     0.550540000000    -0.500351   
O44      O      0.595720000000     0.656200000000     0.601230000000    -0.490002   
O45      O      0.586280000000     0.626620000000     0.474630000000    -0.498843   
O46      O      0.563680000000     0.607480000000     0.564790000000    -0.51847    
O47      O      0.566800000000     0.733200000000     0.494970000000    -0.514091   
O48      O      0.640410000000     0.656110000000     0.504950000000    -0.510702   
O49      O      0.701930000000     0.715190000000     0.421680000000    -0.488611   
O50      O      0.753590000000     0.723570000000     0.376990000000    -0.50851    
O51      O      0.733800000000     0.806840000000     0.371960000000    -0.504884   
O52      O      0.718520000000     0.832520000000     0.454400000000    -0.507353   
O53      O      0.794440000000     0.719550000000     0.461760000000    -0.512325   
O54      O      0.694980000000     0.774760000000     0.482200000000    -0.493686   
O55      O      0.799060000000     0.809140000000     0.393790000000    -0.500522   
O56      O      0.803040000000     0.783790000000     0.482250000000    -0.504867   
O57      O      0.430090000000     0.390500000000     0.695080000000    -0.497454   
O58      O      0.423880000000     0.376010000000     0.628110000000    -0.484279   
O59      O      0.345000000000     0.326920000000     0.737460000000    -0.517294   
O60      O      0.341310000000     0.412490000000     0.696590000000    -0.519997   
O61      O      0.382510000000     0.321380000000     0.606980000000    -0.480202   
O62      O      0.308860000000     0.378610000000     0.646860000000    -0.503083   
O63      O      0.409200000000     0.308730000000     0.721400000000    -0.497331   
O64      O      0.342930000000     0.287080000000     0.651390000000    -0.495798   
O65      O      0.604160000000     0.490190000000     0.175070000000    -0.511891   
O66      O      0.569130000000     0.493590000000     0.234850000000    -0.495317   
O67      O      0.566530000000     0.404990000000     0.215670000000    -0.523845   
O68      O      0.696080000000     0.441560000000     0.210610000000    -0.501106   
O69      O      0.619860000000     0.459500000000     0.302080000000    -0.499      
O70      O      0.669670000000     0.503370000000     0.222860000000    -0.50798    
O71      O      0.623430000000     0.392410000000     0.179120000000    -0.496548   
O72      O      0.643910000000     0.399130000000     0.281270000000    -0.515115   
O73      O      0.297840000000     0.511850000000     0.941710000000    -0.475005   
O74      O      0.324100000000     0.560670000000     0.901390000000    -0.478183   
O75      O      0.303980000000     0.453390000000     0.837780000000    -0.510176   
O76      O      0.244890000000     0.470340000000     0.920620000000    -0.473456   
O77      O      0.254100000000     0.583780000000     0.868210000000    -0.491528   
O78      O      0.208270000000     0.488020000000     0.865060000000    -0.492178   
O79      O      0.336880000000     0.511990000000     0.829150000000    -0.510796   
O80      O      0.237980000000     0.543080000000     0.815310000000    -0.498028   
O81      O      0.527770000000     0.625470000000     0.219880000000    -0.508527   
O82      O      0.510500000000     0.610830000000     0.284720000000    -0.495801   
O83      O      0.394280000000     0.583210000000     0.231770000000    -0.506206   
O84      O      0.414550000000     0.648490000000     0.290590000000    -0.502672   
O85      O      0.458300000000     0.595630000000     0.167330000000    -0.513541   
O86      O      0.449910000000     0.692920000000     0.252390000000    -0.495021   
O87      O      0.449020000000     0.552910000000     0.260080000000    -0.492873   
O88      O      0.437660000000     0.660200000000     0.175030000000    -0.48799    
O89      O      0.687670000000     0.255200000000     0.764180000000    -0.512066   
O90      O      0.668520000000     0.310570000000     0.798980000000    -0.48436    
O91      O      0.603040000000     0.220790000000     0.839090000000    -0.514961   
O92      O      0.545740000000     0.285380000000     0.785540000000    -0.501681   
O93      O      0.586230000000     0.237890000000     0.716710000000    -0.486827   
O94      O      0.592190000000     0.313490000000     0.827630000000    -0.493736   
O95      O      0.619160000000     0.190480000000     0.779770000000    -0.507322   
O96      O      0.613970000000     0.300160000000     0.717640000000    -0.520441   
O97      O      0.531660000000     0.444390000000     0.914050000000    -0.524266   
O98      O      0.465960000000     0.437650000000     0.931590000000    -0.499815   
O99      O      0.554510000000     0.540740000000     0.936580000000    -0.485835   
O100     O      0.444990000000     0.529630000000     0.979320000000    -0.497783   
O101     O      0.501660000000     0.444400000000     0.018170000000    -0.503986   
O102     O      0.472980000000     0.540340000000     0.917390000000    -0.49016    
O103     O      0.577550000000     0.491940000000     0.978600000000    -0.507065   
O104     O      0.500800000000     0.510990000000     0.033700000000    -0.492563   
O105     O      0.507100000000     0.666380000000     0.001280000000    -0.49285    
O106     O      0.512320000000     0.683330000000     0.068260000000    -0.515409   
O107     O      0.607780000000     0.733060000000     0.050540000000    -0.500297   
O108     O      0.595720000000     0.656200000000     0.101230000000    -0.490006   
O109     O      0.586280000000     0.626620000000     0.974630000000    -0.498847   
O110     O      0.563680000000     0.607480000000     0.064790000000    -0.518471   
O111     O      0.566800000000     0.733200000000     0.994970000000    -0.514162   
O112     O      0.640410000000     0.656110000000     0.004950000000    -0.510701   
O113     O      0.701930000000     0.715190000000     0.921670000000    -0.488722   
O114     O      0.753590000000     0.723570000000     0.876990000000    -0.508562   
O115     O      0.733800000000     0.806840000000     0.871960000000    -0.50488    
O116     O      0.718520000000     0.832520000000     0.954400000000    -0.507354   
O117     O      0.794440000000     0.719550000000     0.961760000000    -0.51233    
O118     O      0.694980000000     0.774760000000     0.982200000000    -0.493697   
O119     O      0.799060000000     0.809140000000     0.893790000000    -0.500521   
O120     O      0.803040000000     0.783790000000     0.982250000000    -0.50487    
O121     O      0.430090000000     0.390500000000     0.195080000000    -0.497419   
O122     O      0.423880000000     0.376010000000     0.128110000000    -0.484353   
O123     O      0.345000000000     0.326920000000     0.237460000000    -0.51716    
O124     O      0.341310000000     0.412490000000     0.196590000000    -0.519967   
O125     O      0.382510000000     0.321380000000     0.106980000000    -0.480332   
O126     O      0.308860000000     0.378610000000     0.146860000000    -0.503138   
O127     O      0.409200000000     0.308730000000     0.221390000000    -0.497252   
O128     O      0.342930000000     0.287080000000     0.151390000000    -0.495847   
O129     O      0.604160000000     0.990190000000     0.675070000000    -0.515253   
O130     O      0.569130000000     0.993590000000     0.734850000000    -0.498554   
O131     O      0.566530000000     0.904990000000     0.715670000000    -0.523692   
O132     O      0.696080000000     0.941560000000     0.710610000000    -0.499873   
O133     O      0.619860000000     0.959500000000     0.802080000000    -0.499401   
O134     O      0.669670000000     0.003370000000     0.722860000000    -0.504073   
O135     O      0.623430000000     0.892410000000     0.679120000000    -0.49644    
O136     O      0.643910000000     0.899130000000     0.781270000000    -0.515015   
O137     O      0.297840000000     0.011850000000     0.441710000000    -0.474372   
O138     O      0.324100000000     0.060670000000     0.401390000000    -0.478596   
O139     O      0.303980000000     0.953390000000     0.337780000000    -0.510718   
O140     O      0.244890000000     0.970340000000     0.420620000000    -0.475293   
O141     O      0.254100000000     0.083780000000     0.368210000000    -0.4919     
O142     O      0.208270000000     0.988020000000     0.365060000000    -0.494067   
O143     O      0.336880000000     0.011990000000     0.329150000000    -0.508918   
O144     O      0.237980000000     0.043080000000     0.315310000000    -0.497687   
O145     O      0.527770000000     0.125470000000     0.719880000000    -0.508544   
O146     O      0.510500000000     0.110830000000     0.784720000000    -0.495648   
O147     O      0.394280000000     0.083210000000     0.731770000000    -0.506043   
O148     O      0.414550000000     0.148490000000     0.790590000000    -0.502651   
O149     O      0.458300000000     0.095630000000     0.667330000000    -0.513298   
O150     O      0.449910000000     0.192920000000     0.752390000000    -0.495043   
O151     O      0.449020000000     0.052910000000     0.760080000000    -0.492199   
O152     O      0.437660000000     0.160200000000     0.675030000000    -0.487989   
O153     O      0.687670000000     0.755200000000     0.264180000000    -0.512071   
O154     O      0.668520000000     0.810570000000     0.298980000000    -0.484358   
O155     O      0.603040000000     0.720790000000     0.339090000000    -0.514951   
O156     O      0.545740000000     0.785380000000     0.285540000000    -0.501669   
O157     O      0.586230000000     0.737890000000     0.216710000000    -0.486819   
O158     O      0.592190000000     0.813490000000     0.327630000000    -0.493722   
O159     O      0.619160000000     0.690480000000     0.279770000000    -0.507323   
O160     O      0.613970000000     0.800160000000     0.217640000000    -0.520441   
O161     O      0.531660000000     0.944390000000     0.414050000000    -0.523946   
O162     O      0.465960000000     0.937650000000     0.431580000000    -0.499714   
O163     O      0.554510000000     0.040740000000     0.436580000000    -0.485132   
O164     O      0.444990000000     0.029630000000     0.479320000000    -0.496115   
O165     O      0.501660000000     0.944400000000     0.518170000000    -0.502754   
O166     O      0.472980000000     0.040330000000     0.417390000000    -0.488516   
O167     O      0.577550000000     0.991950000000     0.478600000000    -0.509098   
O168     O      0.500800000000     0.010990000000     0.533700000000    -0.48898    
O169     O      0.507100000000     0.166380000000     0.501280000000    -0.492831   
O170     O      0.512320000000     0.183330000000     0.568260000000    -0.515414   
O171     O      0.607780000000     0.233060000000     0.550540000000    -0.500343   
O172     O      0.595720000000     0.156200000000     0.601230000000    -0.489958   
O173     O      0.586280000000     0.126620000000     0.474630000000    -0.498841   
O174     O      0.563680000000     0.107480000000     0.564790000000    -0.518299   
O175     O      0.566800000000     0.233210000000     0.494970000000    -0.514033   
O176     O      0.640410000000     0.156100000000     0.504950000000    -0.510706   
O177     O      0.701930000000     0.215190000000     0.421680000000    -0.488615   
O178     O      0.753590000000     0.223570000000     0.376990000000    -0.508515   
O179     O      0.733800000000     0.306840000000     0.371960000000    -0.504874   
O180     O      0.718520000000     0.332520000000     0.454400000000    -0.507257   
O181     O      0.794440000000     0.219540000000     0.461760000000    -0.512104   
O182     O      0.694980000000     0.274760000000     0.482200000000    -0.49367    
O183     O      0.799060000000     0.309140000000     0.393790000000    -0.500469   
O184     O      0.803040000000     0.283790000000     0.482250000000    -0.504747   
O185     O      0.430090000000     0.890500000000     0.695080000000    -0.497552   
O186     O      0.423880000000     0.876010000000     0.628110000000    -0.484363   
O187     O      0.345000000000     0.826920000000     0.737460000000    -0.517278   
O188     O      0.341310000000     0.912480000000     0.696590000000    -0.520267   
O189     O      0.382510000000     0.821380000000     0.606980000000    -0.480253   
O190     O      0.308860000000     0.878610000000     0.646860000000    -0.503252   
O191     O      0.409200000000     0.808730000000     0.721400000000    -0.49732    
O192     O      0.342930000000     0.787080000000     0.651390000000    -0.495808   
O193     O      0.604160000000     0.990190000000     0.175070000000    -0.515247   
O194     O      0.569130000000     0.993590000000     0.234850000000    -0.498552   
O195     O      0.566530000000     0.904990000000     0.215670000000    -0.523691   
O196     O      0.696080000000     0.941560000000     0.210610000000    -0.499868   
O197     O      0.619860000000     0.959500000000     0.302080000000    -0.499403   
O198     O      0.669670000000     0.003370000000     0.222860000000    -0.504095   
O199     O      0.623430000000     0.892410000000     0.179120000000    -0.496438   
O200     O      0.643910000000     0.899130000000     0.281270000000    -0.515016   
O201     O      0.297840000000     0.011850000000     0.941710000000    -0.474374   
O202     O      0.324100000000     0.060670000000     0.901390000000    -0.478597   
O203     O      0.303980000000     0.953390000000     0.837780000000    -0.510718   
O204     O      0.244890000000     0.970340000000     0.920620000000    -0.475295   
O205     O      0.254100000000     0.083780000000     0.868210000000    -0.491909   
O206     O      0.208270000000     0.988020000000     0.865060000000    -0.494065   
O207     O      0.336880000000     0.011990000000     0.829150000000    -0.508918   
O208     O      0.237980000000     0.043080000000     0.815310000000    -0.497695   
O209     O      0.527770000000     0.125470000000     0.219880000000    -0.508544   
O210     O      0.510500000000     0.110830000000     0.284720000000    -0.495647   
O211     O      0.394280000000     0.083210000000     0.231770000000    -0.506042   
O212     O      0.414550000000     0.148490000000     0.290590000000    -0.50265    
O213     O      0.458300000000     0.095630000000     0.167330000000    -0.513298   
O214     O      0.449910000000     0.192920000000     0.252390000000    -0.495042   
O215     O      0.449020000000     0.052910000000     0.260080000000    -0.492199   
O216     O      0.437660000000     0.160200000000     0.175030000000    -0.487987   
O217     O      0.687670000000     0.755200000000     0.764180000000    -0.512071   
O218     O      0.668520000000     0.810570000000     0.798980000000    -0.484358   
O219     O      0.603040000000     0.720790000000     0.839090000000    -0.514949   
O220     O      0.545740000000     0.785380000000     0.785540000000    -0.50167    
O221     O      0.586230000000     0.737890000000     0.716710000000    -0.48682    
O222     O      0.592190000000     0.813490000000     0.827630000000    -0.493723   
O223     O      0.619160000000     0.690480000000     0.779770000000    -0.507322   
O224     O      0.613970000000     0.800160000000     0.717640000000    -0.520442   
O225     O      0.531660000000     0.944390000000     0.914050000000    -0.523934   
O226     O      0.465960000000     0.937650000000     0.931590000000    -0.499702   
O227     O      0.554510000000     0.040740000000     0.936580000000    -0.485138   
O228     O      0.444990000000     0.029630000000     0.979320000000    -0.496119   
O229     O      0.501660000000     0.944400000000     0.018170000000    -0.502739   
O230     O      0.472980000000     0.040330000000     0.917390000000    -0.488523   
O231     O      0.577550000000     0.991950000000     0.978600000000    -0.509105   
O232     O      0.500800000000     0.010990000000     0.033700000000    -0.488978   
O233     O      0.507100000000     0.166380000000     0.001280000000    -0.492827   
O234     O      0.512320000000     0.183330000000     0.068260000000    -0.515413   
O235     O      0.607780000000     0.233060000000     0.050540000000    -0.500288   
O236     O      0.595720000000     0.156200000000     0.101230000000    -0.489961   
O237     O      0.586280000000     0.126620000000     0.974630000000    -0.498845   
O238     O      0.563680000000     0.107480000000     0.064790000000    -0.518299   
O239     O      0.566800000000     0.233210000000     0.994970000000    -0.514104   
O240     O      0.640410000000     0.156100000000     0.004950000000    -0.510705   
O241     O      0.701930000000     0.215190000000     0.921670000000    -0.488725   
O242     O      0.753590000000     0.223570000000     0.876990000000    -0.508567   
O243     O      0.733800000000     0.306840000000     0.871960000000    -0.50487    
O244     O      0.718520000000     0.332520000000     0.954400000000    -0.507259   
O245     O      0.794440000000     0.219540000000     0.961760000000    -0.512109   
O246     O      0.694980000000     0.274760000000     0.982200000000    -0.493682   
O247     O      0.799060000000     0.309140000000     0.893790000000    -0.500468   
O248     O      0.803040000000     0.283790000000     0.982250000000    -0.50475    
O249     O      0.430090000000     0.890500000000     0.195080000000    -0.497517   
O250     O      0.423880000000     0.876010000000     0.128110000000    -0.484438   
O251     O      0.345000000000     0.826920000000     0.237460000000    -0.517144   
O252     O      0.341310000000     0.912480000000     0.196590000000    -0.520236   
O253     O      0.382510000000     0.821380000000     0.106980000000    -0.480384   
O254     O      0.308860000000     0.878610000000     0.146860000000    -0.503306   
O255     O      0.409200000000     0.808730000000     0.221390000000    -0.497242   
O256     O      0.342930000000     0.787080000000     0.151390000000    -0.495857   
O257     O      0.104160000000     0.490190000000     0.675070000000    -0.511884   
O258     O      0.069130000000     0.493590000000     0.734850000000    -0.495295   
O259     O      0.066520000000     0.404990000000     0.715670000000    -0.523635   
O260     O      0.196080000000     0.441560000000     0.710610000000    -0.501101   
O261     O      0.119860000000     0.459500000000     0.802080000000    -0.498982   
O262     O      0.169670000000     0.503370000000     0.722860000000    -0.507944   
O263     O      0.123430000000     0.392410000000     0.679120000000    -0.496503   
O264     O      0.143910000000     0.399130000000     0.781270000000    -0.515105   
O265     O      0.797840000000     0.511850000000     0.441710000000    -0.475002   
O266     O      0.824100000000     0.560670000000     0.401390000000    -0.478179   
O267     O      0.803980000000     0.453390000000     0.337780000000    -0.510156   
O268     O      0.744890000000     0.470340000000     0.420620000000    -0.473453   
O269     O      0.754100000000     0.583780000000     0.368210000000    -0.491517   
O270     O      0.708270000000     0.488020000000     0.365060000000    -0.492181   
O271     O      0.836880000000     0.511990000000     0.329150000000    -0.51077    
O272     O      0.737980000000     0.543080000000     0.315310000000    -0.498016   
O273     O      0.027770000000     0.625470000000     0.719880000000    -0.508471   
O274     O      0.010500000000     0.610830000000     0.784720000000    -0.495735   
O275     O      0.894280000000     0.583210000000     0.731770000000    -0.506188   
O276     O      0.914550000000     0.648490000000     0.790590000000    -0.50264    
O277     O      0.958300000000     0.595630000000     0.667330000000    -0.513556   
O278     O      0.949910000000     0.692920000000     0.752390000000    -0.495082   
O279     O      0.949020000000     0.552910000000     0.760080000000    -0.492891   
O280     O      0.937660000000     0.660200000000     0.675030000000    -0.487983   
O281     O      0.187670000000     0.255200000000     0.264180000000    -0.512089   
O282     O      0.168520000000     0.310570000000     0.298980000000    -0.484373   
O283     O      0.103040000000     0.220790000000     0.339090000000    -0.514947   
O284     O      0.045740000000     0.285380000000     0.285540000000    -0.501631   
O285     O      0.086220000000     0.237890000000     0.216710000000    -0.486727   
O286     O      0.092190000000     0.313490000000     0.327630000000    -0.493808   
O287     O      0.119160000000     0.190480000000     0.279770000000    -0.507323   
O288     O      0.113970000000     0.300160000000     0.217640000000    -0.520419   
O289     O      0.031660000000     0.444390000000     0.414050000000    -0.524257   
O290     O      0.965970000000     0.437650000000     0.431580000000    -0.500026   
O291     O      0.054510000000     0.540740000000     0.436580000000    -0.485831   
O292     O      0.944980000000     0.529630000000     0.479320000000    -0.497727   
O293     O      0.001660000000     0.444400000000     0.518170000000    -0.503879   
O294     O      0.972980000000     0.540340000000     0.417390000000    -0.490217   
O295     O      0.077550000000     0.491940000000     0.478600000000    -0.507068   
O296     O      0.000800000000     0.510990000000     0.533700000000    -0.492469   
O297     O      0.007090000000     0.666380000000     0.501280000000    -0.492669   
O298     O      0.012320000000     0.683330000000     0.568260000000    -0.515294   
O299     O      0.107780000000     0.733060000000     0.550540000000    -0.500338   
O300     O      0.095720000000     0.656200000000     0.601230000000    -0.48999    
O301     O      0.086280000000     0.626620000000     0.474630000000    -0.498839   
O302     O      0.063680000000     0.607480000000     0.564790000000    -0.518455   
O303     O      0.066800000000     0.733200000000     0.494970000000    -0.514075   
O304     O      0.140410000000     0.656110000000     0.504950000000    -0.510689   
O305     O      0.201930000000     0.715190000000     0.421680000000    -0.488604   
O306     O      0.253590000000     0.723570000000     0.376990000000    -0.508505   
O307     O      0.233800000000     0.806840000000     0.371960000000    -0.504877   
O308     O      0.218510000000     0.832520000000     0.454400000000    -0.507391   
O309     O      0.294440000000     0.719550000000     0.461760000000    -0.512321   
O310     O      0.194980000000     0.774760000000     0.482200000000    -0.49372    
O311     O      0.299060000000     0.809140000000     0.393790000000    -0.500522   
O312     O      0.303040000000     0.783790000000     0.482250000000    -0.504872   
O313     O      0.930090000000     0.390500000000     0.695080000000    -0.497451   
O314     O      0.923880000000     0.376010000000     0.628110000000    -0.484279   
O315     O      0.845000000000     0.326920000000     0.737460000000    -0.517279   
O316     O      0.841310000000     0.412490000000     0.696590000000    -0.519973   
O317     O      0.882510000000     0.321380000000     0.606980000000    -0.480248   
O318     O      0.808850000000     0.378610000000     0.646860000000    -0.502943   
O319     O      0.909200000000     0.308730000000     0.721400000000    -0.49732    
O320     O      0.842930000000     0.287080000000     0.651390000000    -0.495753   
O321     O      0.104160000000     0.490190000000     0.175070000000    -0.511877   
O322     O      0.069130000000     0.493590000000     0.234850000000    -0.495293   
O323     O      0.066520000000     0.404990000000     0.215670000000    -0.523633   
O324     O      0.196080000000     0.441560000000     0.210610000000    -0.501097   
O325     O      0.119860000000     0.459500000000     0.302080000000    -0.498983   
O326     O      0.169670000000     0.503370000000     0.222860000000    -0.507966   
O327     O      0.123430000000     0.392410000000     0.179120000000    -0.496501   
O328     O      0.143910000000     0.399130000000     0.281270000000    -0.515107   
O329     O      0.797840000000     0.511850000000     0.941710000000    -0.475005   
O330     O      0.824100000000     0.560670000000     0.901390000000    -0.47818    
O331     O      0.803980000000     0.453390000000     0.837780000000    -0.510156   
O332     O      0.744890000000     0.470340000000     0.920620000000    -0.473454   
O333     O      0.754100000000     0.583780000000     0.868210000000    -0.491526   
O334     O      0.708270000000     0.488020000000     0.865060000000    -0.492179   
O335     O      0.836880000000     0.511990000000     0.829150000000    -0.51077    
O336     O      0.737980000000     0.543080000000     0.815310000000    -0.498024   
O337     O      0.027770000000     0.625470000000     0.219880000000    -0.508471   
O338     O      0.010500000000     0.610830000000     0.284720000000    -0.495735   
O339     O      0.894280000000     0.583210000000     0.231770000000    -0.506187   
O340     O      0.914550000000     0.648490000000     0.290590000000    -0.502639   
O341     O      0.958300000000     0.595630000000     0.167330000000    -0.513557   
O342     O      0.949910000000     0.692920000000     0.252390000000    -0.495081   
O343     O      0.949020000000     0.552910000000     0.260080000000    -0.49289    
O344     O      0.937660000000     0.660200000000     0.175030000000    -0.487981   
O345     O      0.187670000000     0.255200000000     0.764180000000    -0.512089   
O346     O      0.168520000000     0.310570000000     0.798980000000    -0.484373   
O347     O      0.103040000000     0.220790000000     0.839090000000    -0.514946   
O348     O      0.045740000000     0.285380000000     0.785540000000    -0.501632   
O349     O      0.086220000000     0.237890000000     0.716710000000    -0.486727   
O350     O      0.092190000000     0.313490000000     0.827630000000    -0.493809   
O351     O      0.119160000000     0.190480000000     0.779770000000    -0.507323   
O352     O      0.113970000000     0.300160000000     0.717640000000    -0.520419   
O353     O      0.031660000000     0.444390000000     0.914050000000    -0.524245   
O354     O      0.965970000000     0.437650000000     0.931590000000    -0.500015   
O355     O      0.054510000000     0.540740000000     0.936580000000    -0.485836   
O356     O      0.944980000000     0.529630000000     0.979320000000    -0.497732   
O357     O      0.001660000000     0.444400000000     0.018170000000    -0.503864   
O358     O      0.972980000000     0.540340000000     0.917390000000    -0.490223   
O359     O      0.077550000000     0.491940000000     0.978600000000    -0.507075   
O360     O      0.000800000000     0.510990000000     0.033700000000    -0.492466   
O361     O      0.007090000000     0.666380000000     0.001280000000    -0.492664   
O362     O      0.012320000000     0.683330000000     0.068260000000    -0.515293   
O363     O      0.107780000000     0.733060000000     0.050540000000    -0.500284   
O364     O      0.095720000000     0.656200000000     0.101230000000    -0.489993   
O365     O      0.086280000000     0.626620000000     0.974630000000    -0.498843   
O366     O      0.063680000000     0.607480000000     0.064790000000    -0.518455   
O367     O      0.066800000000     0.733200000000     0.994970000000    -0.514147   
O368     O      0.140410000000     0.656110000000     0.004950000000    -0.510687   
O369     O      0.201930000000     0.715190000000     0.921670000000    -0.488714   
O370     O      0.253590000000     0.723570000000     0.876990000000    -0.508557   
O371     O      0.233800000000     0.806840000000     0.871960000000    -0.504874   
O372     O      0.218510000000     0.832520000000     0.954400000000    -0.507392   
O373     O      0.294440000000     0.719550000000     0.961760000000    -0.512326   
O374     O      0.194980000000     0.774760000000     0.982200000000    -0.493732   
O375     O      0.299060000000     0.809140000000     0.893790000000    -0.500521   
O376     O      0.303040000000     0.783790000000     0.982250000000    -0.504876   
O377     O      0.930090000000     0.390500000000     0.195080000000    -0.497416   
O378     O      0.923880000000     0.376010000000     0.128110000000    -0.484354   
O379     O      0.845000000000     0.326920000000     0.237460000000    -0.517145   
O380     O      0.841310000000     0.412490000000     0.196590000000    -0.519942   
O381     O      0.882510000000     0.321380000000     0.106980000000    -0.480378   
O382     O      0.808850000000     0.378610000000     0.146860000000    -0.502997   
O383     O      0.909200000000     0.308730000000     0.221390000000    -0.497242   
O384     O      0.842930000000     0.287080000000     0.151390000000    -0.495802   
O385     O      0.104160000000     0.990190000000     0.675070000000    -0.51524    
O386     O      0.069130000000     0.993590000000     0.734850000000    -0.49853    
O387     O      0.066520000000     0.904990000000     0.715670000000    -0.52348    
O388     O      0.196080000000     0.941560000000     0.710610000000    -0.499864   
O389     O      0.119860000000     0.959500000000     0.802080000000    -0.499385   
O390     O      0.169670000000     0.003370000000     0.722860000000    -0.504059   
O391     O      0.123430000000     0.892410000000     0.679120000000    -0.496393   
O392     O      0.143910000000     0.899130000000     0.781270000000    -0.515006   
O393     O      0.797840000000     0.011850000000     0.441710000000    -0.474371   
O394     O      0.824100000000     0.060670000000     0.401390000000    -0.478592   
O395     O      0.803980000000     0.953390000000     0.337780000000    -0.510698   
O396     O      0.744890000000     0.970340000000     0.420620000000    -0.475292   
O397     O      0.754100000000     0.083780000000     0.368210000000    -0.491898   
O398     O      0.708270000000     0.988020000000     0.365060000000    -0.494067   
O399     O      0.836880000000     0.011990000000     0.329150000000    -0.508892   
O400     O      0.737980000000     0.043080000000     0.315310000000    -0.497683   
O401     O      0.027770000000     0.125470000000     0.719880000000    -0.508487   
O402     O      0.010500000000     0.110830000000     0.784720000000    -0.495582   
O403     O      0.894280000000     0.083210000000     0.731770000000    -0.506025   
O404     O      0.914550000000     0.148490000000     0.790590000000    -0.502617   
O405     O      0.958300000000     0.095630000000     0.667330000000    -0.513313   
O406     O      0.949910000000     0.192920000000     0.752390000000    -0.495102   
O407     O      0.949020000000     0.052910000000     0.760080000000    -0.492216   
O408     O      0.937660000000     0.160200000000     0.675030000000    -0.487981   
O409     O      0.187670000000     0.755200000000     0.264180000000    -0.512094   
O410     O      0.168520000000     0.810570000000     0.298980000000    -0.484371   
O411     O      0.103040000000     0.720790000000     0.339090000000    -0.514935   
O412     O      0.045740000000     0.785380000000     0.285540000000    -0.50162    
O413     O      0.086220000000     0.737890000000     0.216710000000    -0.486719   
O414     O      0.092190000000     0.813490000000     0.327630000000    -0.493795   
O415     O      0.119160000000     0.690480000000     0.279770000000    -0.507324   
O416     O      0.113970000000     0.800160000000     0.217640000000    -0.520419   
O417     O      0.031660000000     0.944390000000     0.414050000000    -0.523926   
O418     O      0.965970000000     0.937650000000     0.431580000000    -0.499914   
O419     O      0.054510000000     0.040740000000     0.436580000000    -0.485133   
O420     O      0.944980000000     0.029630000000     0.479320000000    -0.496064   
O421     O      0.001660000000     0.944400000000     0.518170000000    -0.502632   
O422     O      0.972980000000     0.040330000000     0.417390000000    -0.48858    
O423     O      0.077550000000     0.991950000000     0.478600000000    -0.509108   
O424     O      0.000800000000     0.010990000000     0.533700000000    -0.488884   
O425     O      0.007090000000     0.166380000000     0.501280000000    -0.492645   
O426     O      0.012320000000     0.183330000000     0.568260000000    -0.515298   
O427     O      0.107780000000     0.233060000000     0.550540000000    -0.50033    
O428     O      0.095720000000     0.156200000000     0.601230000000    -0.489946   
O429     O      0.086280000000     0.126620000000     0.474630000000    -0.498837   
O430     O      0.063680000000     0.107480000000     0.564790000000    -0.518284   
O431     O      0.066800000000     0.233210000000     0.494970000000    -0.514017   
O432     O      0.140410000000     0.156100000000     0.504950000000    -0.510693   
O433     O      0.201930000000     0.215190000000     0.421680000000    -0.488607   
O434     O      0.253590000000     0.223570000000     0.376990000000    -0.50851    
O435     O      0.233800000000     0.306840000000     0.371960000000    -0.504867   
O436     O      0.218510000000     0.332520000000     0.454400000000    -0.507295   
O437     O      0.294440000000     0.219540000000     0.461760000000    -0.5121     
O438     O      0.194980000000     0.274760000000     0.482200000000    -0.493705   
O439     O      0.299060000000     0.309140000000     0.393790000000    -0.500468   
O440     O      0.303040000000     0.283790000000     0.482250000000    -0.504752   
O441     O      0.930090000000     0.890500000000     0.695080000000    -0.49755    
O442     O      0.923880000000     0.876010000000     0.628110000000    -0.484364   
O443     O      0.845000000000     0.826920000000     0.737460000000    -0.517263   
O444     O      0.841310000000     0.912480000000     0.696590000000    -0.520242   
O445     O      0.882510000000     0.821380000000     0.606980000000    -0.480299   
O446     O      0.808850000000     0.878610000000     0.646860000000    -0.503111   
O447     O      0.909200000000     0.808730000000     0.721400000000    -0.49731    
O448     O      0.842930000000     0.787080000000     0.651390000000    -0.495762   
O449     O      0.104160000000     0.990190000000     0.175070000000    -0.515233   
O450     O      0.069130000000     0.993590000000     0.234850000000    -0.498529   
O451     O      0.066520000000     0.904990000000     0.215670000000    -0.523479   
O452     O      0.196080000000     0.941560000000     0.210610000000    -0.499859   
O453     O      0.119860000000     0.959500000000     0.302080000000    -0.499386   
O454     O      0.169670000000     0.003370000000     0.222860000000    -0.504081   
O455     O      0.123430000000     0.892410000000     0.179120000000    -0.49639    
O456     O      0.143910000000     0.899130000000     0.281270000000    -0.515008   
O457     O      0.797840000000     0.011850000000     0.941710000000    -0.474374   
O458     O      0.824100000000     0.060670000000     0.901390000000    -0.478593   
O459     O      0.803980000000     0.953390000000     0.837780000000    -0.510698   
O460     O      0.744890000000     0.970340000000     0.920620000000    -0.475293   
O461     O      0.754100000000     0.083780000000     0.868210000000    -0.491907   
O462     O      0.708270000000     0.988020000000     0.865060000000    -0.494065   
O463     O      0.836880000000     0.011990000000     0.829150000000    -0.508893   
O464     O      0.737980000000     0.043080000000     0.815310000000    -0.497691   
O465     O      0.027770000000     0.125470000000     0.219880000000    -0.508487   
O466     O      0.010500000000     0.110830000000     0.284720000000    -0.495581   
O467     O      0.894280000000     0.083210000000     0.231770000000    -0.506024   
O468     O      0.914550000000     0.148490000000     0.290590000000    -0.502617   
O469     O      0.958300000000     0.095630000000     0.167330000000    -0.513313   
O470     O      0.949910000000     0.192920000000     0.252390000000    -0.495101   
O471     O      0.949020000000     0.052910000000     0.260080000000    -0.492216   
O472     O      0.937660000000     0.160200000000     0.175030000000    -0.487979   
O473     O      0.187670000000     0.755200000000     0.764180000000    -0.512094   
O474     O      0.168520000000     0.810570000000     0.798980000000    -0.48437    
O475     O      0.103040000000     0.720790000000     0.839090000000    -0.514934   
O476     O      0.045740000000     0.785380000000     0.785540000000    -0.501621   
O477     O      0.086220000000     0.737890000000     0.716710000000    -0.48672    
O478     O      0.092190000000     0.813490000000     0.827630000000    -0.493796   
O479     O      0.119160000000     0.690480000000     0.779770000000    -0.507324   
O480     O      0.113970000000     0.800160000000     0.717640000000    -0.52042    
O481     O      0.031660000000     0.944390000000     0.914050000000    -0.523914   
O482     O      0.965970000000     0.937650000000     0.931590000000    -0.499902   
O483     O      0.054510000000     0.040740000000     0.936580000000    -0.485139   
O484     O      0.944980000000     0.029630000000     0.979320000000    -0.496069   
O485     O      0.001660000000     0.944400000000     0.018170000000    -0.502617   
O486     O      0.972980000000     0.040330000000     0.917390000000    -0.488587   
O487     O      0.077550000000     0.991950000000     0.978600000000    -0.509115   
O488     O      0.000800000000     0.010990000000     0.033700000000    -0.488881   
O489     O      0.007090000000     0.166380000000     0.001280000000    -0.492641   
O490     O      0.012320000000     0.183330000000     0.068260000000    -0.515297   
O491     O      0.107780000000     0.233060000000     0.050540000000    -0.500275   
O492     O      0.095720000000     0.156200000000     0.101230000000    -0.489949   
O493     O      0.086280000000     0.126620000000     0.974630000000    -0.498841   
O494     O      0.063680000000     0.107480000000     0.064790000000    -0.518284   
O495     O      0.066800000000     0.233210000000     0.994970000000    -0.514088   
O496     O      0.140410000000     0.156100000000     0.004950000000    -0.510691   
O497     O      0.201930000000     0.215190000000     0.921670000000    -0.488717   
O498     O      0.253590000000     0.223570000000     0.876990000000    -0.508562   
O499     O      0.233800000000     0.306840000000     0.871960000000    -0.504864   
O500     O      0.218510000000     0.332520000000     0.954400000000    -0.507296   
O501     O      0.294440000000     0.219540000000     0.961760000000    -0.512105   
O502     O      0.194980000000     0.274760000000     0.982200000000    -0.493717   
O503     O      0.299060000000     0.309140000000     0.893790000000    -0.500468   
O504     O      0.303040000000     0.283790000000     0.982250000000    -0.504756   
O505     O      0.930090000000     0.890500000000     0.195080000000    -0.497515   
O506     O      0.923880000000     0.876010000000     0.128110000000    -0.484438   
O507     O      0.845000000000     0.826920000000     0.237460000000    -0.517129   
O508     O      0.841310000000     0.912480000000     0.196590000000    -0.520211   
O509     O      0.882510000000     0.821380000000     0.106980000000    -0.480429   
O510     O      0.808850000000     0.878610000000     0.146860000000    -0.503166   
O511     O      0.909200000000     0.808730000000     0.221390000000    -0.497231   
O512     O      0.842930000000     0.787080000000     0.151390000000    -0.495812   


