data_structure

_audit_creation_method RASPA-1.0
_audit_creation_date 2023-6-4
_audit_author_name 'Poobodin Mano'

_cell_length_a    30.3076
_cell_length_b    29.824
_cell_length_c    28.9431
_cell_angle_alpha 90
_cell_angle_beta  90
_cell_angle_gamma 120
_cell_volume      22656.5

_symmetry_cell_setting          triclinic
_symmetry_space_group_name_Hall 'P 1'
_symmetry_space_group_name_H-M  'P 1'
_symmetry_Int_Tables_number     1

_symmetry_equiv_pos_as_xyz 'x,y,z'

loop_
_atom_site_label
_atom_site_type_symbol
_atom_site_fract_x
_atom_site_fract_y
_atom_site_fract_z
_atom_site_charge
C1       C      0.328560000000     0.498720000000     0.433040000000     0.541098   
C2       C      0.319180000000     0.516520000000     0.313110000000     0.530785   
C3       C      0.189510000000     0.382880000000     0.299190000000     0.510563   
C4       C      0.313760000000     0.356350000000     0.410910000000     0.52758    
C5       C      0.322670000000     0.382050000000     0.290480000000     0.542521   
C6       C      0.188410000000     0.367590000000     0.423920000000     0.517826   
C7       C      0.404560000000     0.309700000000     0.160300000000     0.53088    
C8       C      0.392500000000     0.280470000000     0.040760000000     0.550701   
C9       C      0.406530000000     0.151990000000     0.065880000000     0.536009   
C10      C      0.536320000000     0.310640000000     0.170340000000     0.538596   
C11      C      0.531560000000     0.288680000000     0.048860000000     0.544825   
C12      C      0.400060000000     0.174560000000     0.186370000000     0.552233   
C13      C      0.158970000000     0.360130000000     0.001470000000     0.0592171  
C14      C      0.101800000000     0.312240000000     0.441190000000     0.0169805  
C15      C      0.118900000000     0.337620000000     0.033530000000     0.0113986  
C16      C      0.560760000000     0.293470000000     0.471900000000     0.138355   
C17      C      0.107180000000     0.364440000000     0.275990000000     0.0384661  
C18      C      0.162640000000     0.360630000000     0.220620000000     0.0187976  
C19      C      0.567940000000     0.344550000000     0.243530000000     0.0504189  
C20      C      0.124580000000     0.345340000000     0.186380000000     0.1413     
C21      C      0.308770000000     0.574700000000     0.263360000000     0.0382386  
C22      C      0.390310000000     0.585400000000     0.276560000000     0.015279   
C23      C      0.330330000000     0.117320000000     0.233410000000     0.046275   
C24      C      0.411910000000     0.127290000000     0.246410000000     0.14308    
C25      C      0.337890000000     0.087780000000     0.522770000000     0.0425601  
C26      C      0.418420000000     0.094300000000     0.016530000000     0.0220915  
C27      C      0.318590000000     0.549130000000     0.489590000000     0.0465894  
C28      C      0.398190000000     0.552670000000     0.484900000000     0.140731   
C29      C      0.382800000000     0.358120000000     0.450000000000     0.0426068  
C30      C      0.300290000000     0.287190000000     0.961990000000     0.0177378  
C31      C      0.402160000000     0.338670000000     0.482570000000     0.0502912  
C32      C      0.320000000000     0.266160000000     0.994290000000     0.142202   
C33      C      0.413210000000     0.378460000000     0.209210000000     0.0388674  
C34      C      0.335310000000     0.299770000000     0.204550000000     0.0168751  
C35      C      0.390830000000     0.397560000000     0.240070000000     0.0436236  
C36      C      0.313300000000     0.317630000000     0.236250000000     0.141843   
C37      C      0.328560000000     0.498720000000     0.933040000000     0.541099   
C38      C      0.319180000000     0.516520000000     0.813110000000     0.530686   
C39      C      0.189510000000     0.382880000000     0.799190000000     0.510559   
C40      C      0.313760000000     0.356350000000     0.910910000000     0.52758    
C41      C      0.322670000000     0.382050000000     0.790480000000     0.542522   
C42      C      0.188410000000     0.367590000000     0.923920000000     0.517979   
C43      C      0.404560000000     0.309700000000     0.660300000000     0.53092    
C44      C      0.392500000000     0.280470000000     0.540760000000     0.550674   
C45      C      0.406530000000     0.151990000000     0.565890000000     0.536062   
C46      C      0.536320000000     0.310640000000     0.670340000000     0.53852    
C47      C      0.531560000000     0.288680000000     0.548860000000     0.544776   
C48      C      0.400060000000     0.174560000000     0.686370000000     0.552228   
C49      C      0.158970000000     0.360130000000     0.501470000000     0.0591681  
C50      C      0.101800000000     0.312240000000     0.941190000000     0.0169963  
C51      C      0.118900000000     0.337620000000     0.533530000000     0.0114054  
C52      C      0.560760000000     0.293470000000     0.971900000000     0.138314   
C53      C      0.107180000000     0.364440000000     0.775990000000     0.0384663  
C54      C      0.162640000000     0.360630000000     0.720620000000     0.0187986  
C55      C      0.567940000000     0.344550000000     0.743530000000     0.0504175  
C56      C      0.124580000000     0.345340000000     0.686380000000     0.141296   
C57      C      0.308770000000     0.574700000000     0.763370000000     0.0382609  
C58      C      0.390310000000     0.585400000000     0.776560000000     0.0152724  
C59      C      0.330330000000     0.117320000000     0.733410000000     0.0462679  
C60      C      0.411910000000     0.127290000000     0.746410000000     0.143079   
C61      C      0.337890000000     0.087780000000     0.022770000000     0.0426312  
C62      C      0.418420000000     0.094300000000     0.516530000000     0.0220122  
C63      C      0.318590000000     0.549130000000     0.989590000000     0.0465293  
C64      C      0.398190000000     0.552670000000     0.984890000000     0.140695   
C65      C      0.382800000000     0.358120000000     0.950010000000     0.0426172  
C66      C      0.300290000000     0.287190000000     0.462000000000     0.0176985  
C67      C      0.402160000000     0.338670000000     0.982570000000     0.050243   
C68      C      0.320000000000     0.266160000000     0.494290000000     0.142266   
C69      C      0.413210000000     0.378460000000     0.709210000000     0.038871   
C70      C      0.335310000000     0.299770000000     0.704550000000     0.0168611  
C71      C      0.390830000000     0.397560000000     0.740070000000     0.0436178  
C72      C      0.313300000000     0.317630000000     0.736240000000     0.141826   
C73      C      0.328560000000     0.998720000000     0.433040000000     0.540932   
C74      C      0.319180000000     0.016520000000     0.313110000000     0.531034   
C75      C      0.189510000000     0.882880000000     0.299190000000     0.510352   
C76      C      0.313760000000     0.856350000000     0.410910000000     0.527551   
C77      C      0.322670000000     0.882060000000     0.290480000000     0.542407   
C78      C      0.188410000000     0.867590000000     0.423920000000     0.517801   
C79      C      0.404560000000     0.809700000000     0.160300000000     0.53089    
C80      C      0.392500000000     0.780470000000     0.040760000000     0.550688   
C81      C      0.406520000000     0.651990000000     0.065880000000     0.536011   
C82      C      0.536320000000     0.810640000000     0.170340000000     0.538591   
C83      C      0.531560000000     0.788690000000     0.048860000000     0.544714   
C84      C      0.400060000000     0.674560000000     0.186370000000     0.552211   
C85      C      0.158970000000     0.860130000000     0.001470000000     0.0592201  
C86      C      0.101800000000     0.812240000000     0.441190000000     0.0169742  
C87      C      0.118900000000     0.837620000000     0.033530000000     0.0113719  
C88      C      0.560760000000     0.793470000000     0.471900000000     0.138324   
C89      C      0.107180000000     0.864440000000     0.275990000000     0.0384514  
C90      C      0.162640000000     0.860630000000     0.220620000000     0.0187763  
C91      C      0.567940000000     0.844550000000     0.243530000000     0.0504118  
C92      C      0.124580000000     0.845340000000     0.186380000000     0.14129    
C93      C      0.308770000000     0.074700000000     0.263360000000     0.0382762  
C94      C      0.390310000000     0.085400000000     0.276560000000     0.0153011  
C95      C      0.330330000000     0.617320000000     0.233410000000     0.0462718  
C96      C      0.411910000000     0.627290000000     0.246410000000     0.143072   
C97      C      0.337900000000     0.587790000000     0.522770000000     0.0425965  
C98      C      0.418420000000     0.594300000000     0.016530000000     0.0220947  
C99      C      0.318590000000     0.049130000000     0.489590000000     0.0466373  
C100     C      0.398190000000     0.052670000000     0.484900000000     0.140773   
C101     C      0.382800000000     0.858120000000     0.450000000000     0.0425778  
C102     C      0.300290000000     0.787190000000     0.961990000000     0.0177356  
C103     C      0.402160000000     0.838670000000     0.482570000000     0.0502996  
C104     C      0.320000000000     0.766160000000     0.994290000000     0.142193   
C105     C      0.413210000000     0.878460000000     0.209210000000     0.0388619  
C106     C      0.335310000000     0.799770000000     0.204550000000     0.0168736  
C107     C      0.390830000000     0.897560000000     0.240070000000     0.0436014  
C108     C      0.313300000000     0.817630000000     0.236250000000     0.141835   
C109     C      0.328560000000     0.998720000000     0.933040000000     0.540932   
C110     C      0.319180000000     0.016520000000     0.813110000000     0.530935   
C111     C      0.189510000000     0.882880000000     0.799190000000     0.510347   
C112     C      0.313760000000     0.856350000000     0.910910000000     0.527552   
C113     C      0.322670000000     0.882060000000     0.790480000000     0.542408   
C114     C      0.188410000000     0.867590000000     0.923920000000     0.517954   
C115     C      0.404560000000     0.809700000000     0.660300000000     0.53093    
C116     C      0.392500000000     0.780470000000     0.540760000000     0.550661   
C117     C      0.406520000000     0.651990000000     0.565890000000     0.536064   
C118     C      0.536320000000     0.810640000000     0.670340000000     0.538515   
C119     C      0.531560000000     0.788690000000     0.548860000000     0.544665   
C120     C      0.400060000000     0.674560000000     0.686370000000     0.552206   
C121     C      0.158970000000     0.860130000000     0.501470000000     0.0591711  
C122     C      0.101800000000     0.812240000000     0.941190000000     0.01699    
C123     C      0.118900000000     0.837620000000     0.533530000000     0.0113787  
C124     C      0.560760000000     0.793470000000     0.971900000000     0.138283   
C125     C      0.107180000000     0.864440000000     0.775990000000     0.0384516  
C126     C      0.162640000000     0.860630000000     0.720620000000     0.0187773  
C127     C      0.567940000000     0.844550000000     0.743530000000     0.0504105  
C128     C      0.124580000000     0.845340000000     0.686380000000     0.141286   
C129     C      0.308770000000     0.074700000000     0.763370000000     0.0382985  
C130     C      0.390310000000     0.085400000000     0.776560000000     0.0152945  
C131     C      0.330330000000     0.617320000000     0.733410000000     0.0462647  
C132     C      0.411910000000     0.627290000000     0.746410000000     0.143071   
C133     C      0.337900000000     0.587790000000     0.022770000000     0.0426676  
C134     C      0.418420000000     0.594300000000     0.516530000000     0.0220154  
C135     C      0.318590000000     0.049130000000     0.989590000000     0.0465772  
C136     C      0.398190000000     0.052670000000     0.984890000000     0.140737   
C137     C      0.382800000000     0.858120000000     0.950010000000     0.0425882  
C138     C      0.300290000000     0.787190000000     0.462000000000     0.0176963  
C139     C      0.402160000000     0.838670000000     0.982570000000     0.0502514  
C140     C      0.320000000000     0.766160000000     0.494290000000     0.142257   
C141     C      0.413210000000     0.878460000000     0.709210000000     0.0388654  
C142     C      0.335310000000     0.799770000000     0.704550000000     0.0168596  
C143     C      0.390830000000     0.897560000000     0.740070000000     0.0435956  
C144     C      0.313300000000     0.817630000000     0.736240000000     0.141819   
C145     C      0.828560000000     0.498720000000     0.433040000000     0.540887   
C146     C      0.819180000000     0.516520000000     0.313110000000     0.530778   
C147     C      0.689510000000     0.382880000000     0.299190000000     0.510362   
C148     C      0.813760000000     0.356350000000     0.410910000000     0.527573   
C149     C      0.822670000000     0.382050000000     0.290480000000     0.542508   
C150     C      0.688410000000     0.367590000000     0.423920000000     0.517792   
C151     C      0.904560000000     0.309700000000     0.160300000000     0.530632   
C152     C      0.892500000000     0.280470000000     0.040760000000     0.550473   
C153     C      0.906520000000     0.151990000000     0.065880000000     0.535977   
C154     C      0.036320000000     0.310640000000     0.170340000000     0.538335   
C155     C      0.031560000000     0.288680000000     0.048860000000     0.544633   
C156     C      0.900060000000     0.174560000000     0.186370000000     0.55207    
C157     C      0.658970000000     0.360130000000     0.001470000000     0.0591646  
C158     C      0.601790000000     0.312240000000     0.441190000000     0.0168056  
C159     C      0.618900000000     0.337620000000     0.033530000000     0.0113285  
C160     C      0.060760000000     0.293470000000     0.471900000000     0.138527   
C161     C      0.607180000000     0.364440000000     0.275990000000     0.0383567  
C162     C      0.662650000000     0.360630000000     0.220620000000     0.0187045  
C163     C      0.067940000000     0.344550000000     0.243530000000     0.0505522  
C164     C      0.624580000000     0.345340000000     0.186380000000     0.141252   
C165     C      0.808770000000     0.574700000000     0.263360000000     0.0382287  
C166     C      0.890310000000     0.585400000000     0.276560000000     0.0152886  
C167     C      0.830330000000     0.117320000000     0.233410000000     0.0462422  
C168     C      0.911910000000     0.127290000000     0.246410000000     0.14299    
C169     C      0.837890000000     0.087780000000     0.522770000000     0.042535   
C170     C      0.918420000000     0.094300000000     0.016530000000     0.022096   
C171     C      0.818590000000     0.549130000000     0.489590000000     0.0466119  
C172     C      0.898190000000     0.552670000000     0.484900000000     0.140674   
C173     C      0.882800000000     0.358120000000     0.450000000000     0.0425733  
C174     C      0.800290000000     0.287190000000     0.961990000000     0.017732   
C175     C      0.902160000000     0.338670000000     0.482570000000     0.0502418  
C176     C      0.820000000000     0.266160000000     0.994290000000     0.142162   
C177     C      0.913210000000     0.378460000000     0.209210000000     0.0387674  
C178     C      0.835320000000     0.299770000000     0.204550000000     0.0169427  
C179     C      0.890830000000     0.397560000000     0.240070000000     0.0435897  
C180     C      0.813300000000     0.317630000000     0.236250000000     0.141783   
C181     C      0.828560000000     0.498720000000     0.933040000000     0.540888   
C182     C      0.819180000000     0.516520000000     0.813110000000     0.530679   
C183     C      0.689510000000     0.382880000000     0.799190000000     0.510357   
C184     C      0.813760000000     0.356350000000     0.910910000000     0.527574   
C185     C      0.822670000000     0.382050000000     0.790480000000     0.54251    
C186     C      0.688410000000     0.367590000000     0.923920000000     0.517945   
C187     C      0.904560000000     0.309700000000     0.660300000000     0.530672   
C188     C      0.892500000000     0.280470000000     0.540760000000     0.550446   
C189     C      0.906520000000     0.151990000000     0.565890000000     0.536031   
C190     C      0.036320000000     0.310640000000     0.670340000000     0.538259   
C191     C      0.031560000000     0.288680000000     0.548860000000     0.544584   
C192     C      0.900060000000     0.174560000000     0.686370000000     0.552065   
C193     C      0.658970000000     0.360130000000     0.501470000000     0.0591157  
C194     C      0.601790000000     0.312240000000     0.941190000000     0.0168214  
C195     C      0.618900000000     0.337620000000     0.533530000000     0.0113353  
C196     C      0.060760000000     0.293470000000     0.971900000000     0.138486   
C197     C      0.607180000000     0.364440000000     0.775990000000     0.0383569  
C198     C      0.662650000000     0.360630000000     0.720620000000     0.0187055  
C199     C      0.067940000000     0.344550000000     0.743530000000     0.0505508  
C200     C      0.624580000000     0.345340000000     0.686380000000     0.141248   
C201     C      0.808770000000     0.574700000000     0.763370000000     0.0382511  
C202     C      0.890310000000     0.585400000000     0.776560000000     0.015282   
C203     C      0.830330000000     0.117320000000     0.733410000000     0.0462352  
C204     C      0.911910000000     0.127290000000     0.746410000000     0.14299    
C205     C      0.837890000000     0.087780000000     0.022770000000     0.0426059  
C206     C      0.918420000000     0.094300000000     0.516530000000     0.022017   
C207     C      0.818590000000     0.549130000000     0.989590000000     0.046552   
C208     C      0.898190000000     0.552670000000     0.984890000000     0.140638   
C209     C      0.882800000000     0.358120000000     0.950010000000     0.0425836  
C210     C      0.800290000000     0.287190000000     0.462000000000     0.0176928  
C211     C      0.902160000000     0.338670000000     0.982570000000     0.0501937  
C212     C      0.820000000000     0.266160000000     0.494290000000     0.142225   
C213     C      0.913210000000     0.378460000000     0.709210000000     0.038771   
C214     C      0.835320000000     0.299770000000     0.704550000000     0.0169287  
C215     C      0.890830000000     0.397560000000     0.740070000000     0.0435838  
C216     C      0.813300000000     0.317630000000     0.736240000000     0.141767   
C217     C      0.828560000000     0.998720000000     0.433040000000     0.540931   
C218     C      0.819180000000     0.016520000000     0.313110000000     0.531053   
C219     C      0.689510000000     0.882880000000     0.299190000000     0.510324   
C220     C      0.813760000000     0.856350000000     0.410910000000     0.527524   
C221     C      0.822670000000     0.882060000000     0.290480000000     0.5424     
C222     C      0.688410000000     0.867590000000     0.423920000000     0.517781   
C223     C      0.904560000000     0.809700000000     0.160300000000     0.530827   
C224     C      0.892500000000     0.780470000000     0.040760000000     0.550494   
C225     C      0.906520000000     0.651990000000     0.065880000000     0.535963   
C226     C      0.036320000000     0.810640000000     0.170340000000     0.538334   
C227     C      0.031560000000     0.788690000000     0.048860000000     0.544527   
C228     C      0.900060000000     0.674560000000     0.186370000000     0.552049   
C229     C      0.658970000000     0.860130000000     0.001470000000     0.0591721  
C230     C      0.601800000000     0.812240000000     0.441190000000     0.0168626  
C231     C      0.618900000000     0.837620000000     0.033530000000     0.0112967  
C232     C      0.060760000000     0.793470000000     0.471900000000     0.138523   
C233     C      0.607180000000     0.864440000000     0.275990000000     0.0383362  
C234     C      0.662640000000     0.860630000000     0.220620000000     0.0187246  
C235     C      0.067940000000     0.844550000000     0.243530000000     0.0505435  
C236     C      0.624580000000     0.845340000000     0.186380000000     0.141222   
C237     C      0.808770000000     0.074700000000     0.263360000000     0.0382681  
C238     C      0.890310000000     0.085400000000     0.276560000000     0.0153115  
C239     C      0.830330000000     0.617320000000     0.233410000000     0.0462387  
C240     C      0.911910000000     0.627290000000     0.246410000000     0.142981   
C241     C      0.837890000000     0.587790000000     0.522770000000     0.0425071  
C242     C      0.918420000000     0.594300000000     0.016530000000     0.0220882  
C243     C      0.818590000000     0.049130000000     0.489590000000     0.0466315  
C244     C      0.898190000000     0.052670000000     0.484900000000     0.140716   
C245     C      0.882800000000     0.858120000000     0.450000000000     0.0425565  
C246     C      0.800290000000     0.787190000000     0.961990000000     0.0177267  
C247     C      0.902160000000     0.838670000000     0.482570000000     0.0502432  
C248     C      0.820000000000     0.766160000000     0.994290000000     0.142158   
C249     C      0.913210000000     0.878460000000     0.209210000000     0.0387978  
C250     C      0.835310000000     0.799770000000     0.204550000000     0.0168527  
C251     C      0.890830000000     0.897560000000     0.240070000000     0.043556   
C252     C      0.813300000000     0.817630000000     0.236250000000     0.141805   
C253     C      0.828560000000     0.998720000000     0.933040000000     0.540931   
C254     C      0.819180000000     0.016520000000     0.813110000000     0.530954   
C255     C      0.689510000000     0.882880000000     0.799190000000     0.510319   
C256     C      0.813760000000     0.856350000000     0.910910000000     0.527524   
C257     C      0.822670000000     0.882060000000     0.790480000000     0.542401   
C258     C      0.688410000000     0.867590000000     0.923920000000     0.517934   
C259     C      0.904560000000     0.809700000000     0.660300000000     0.530866   
C260     C      0.892500000000     0.780470000000     0.540760000000     0.550467   
C261     C      0.906520000000     0.651990000000     0.565890000000     0.536017   
C262     C      0.036320000000     0.810640000000     0.670340000000     0.538257   
C263     C      0.031560000000     0.788690000000     0.548860000000     0.544478   
C264     C      0.900060000000     0.674560000000     0.686370000000     0.552044   
C265     C      0.658970000000     0.860130000000     0.501470000000     0.0591232  
C266     C      0.601800000000     0.812240000000     0.941190000000     0.0168783  
C267     C      0.618900000000     0.837620000000     0.533530000000     0.0113035  
C268     C      0.060760000000     0.793470000000     0.971900000000     0.138482   
C269     C      0.607180000000     0.864440000000     0.775990000000     0.0383364  
C270     C      0.662640000000     0.860630000000     0.720620000000     0.0187256  
C271     C      0.067940000000     0.844550000000     0.743530000000     0.0505421  
C272     C      0.624580000000     0.845340000000     0.686380000000     0.141218   
C273     C      0.808770000000     0.074700000000     0.763370000000     0.0382904  
C274     C      0.890310000000     0.085400000000     0.776560000000     0.0153049  
C275     C      0.830330000000     0.617320000000     0.733410000000     0.0462317  
C276     C      0.911910000000     0.627290000000     0.746410000000     0.142981   
C277     C      0.837890000000     0.587790000000     0.022770000000     0.042578   
C278     C      0.918420000000     0.594300000000     0.516530000000     0.0220092  
C279     C      0.818590000000     0.049130000000     0.989590000000     0.0465717  
C280     C      0.898190000000     0.052670000000     0.984890000000     0.140681   
C281     C      0.882800000000     0.858120000000     0.950010000000     0.0425668  
C282     C      0.800290000000     0.787190000000     0.462000000000     0.0176875  
C283     C      0.902160000000     0.838670000000     0.982570000000     0.0501951  
C284     C      0.820000000000     0.766160000000     0.494290000000     0.142222   
C285     C      0.913210000000     0.878460000000     0.709210000000     0.0388014  
C286     C      0.835310000000     0.799770000000     0.704550000000     0.0168387  
C287     C      0.890830000000     0.897560000000     0.740070000000     0.0435502  
C288     C      0.813300000000     0.817630000000     0.736240000000     0.141788   
Fe1      Fe     0.246400000000     0.449910000000     0.371300000000     1.3498     
Fe2      Fe     0.242940000000     0.353770000000     0.352890000000     1.36304    
Fe3      Fe     0.340540000000     0.447710000000     0.361370000000     1.38358    
Fe4      Fe     0.381510000000     0.218710000000     0.112700000000     1.39056    
Fe5      Fe     0.479230000000     0.223550000000     0.122410000000     1.38144    
Fe6      Fe     0.475800000000     0.315850000000     0.100670000000     1.36356    
Fe7      Fe     0.246400000000     0.449910000000     0.871300000000     1.34981    
Fe8      Fe     0.242940000000     0.353770000000     0.852890000000     1.363      
Fe9      Fe     0.340540000000     0.447710000000     0.861370000000     1.38361    
Fe10     Fe     0.381510000000     0.218710000000     0.612700000000     1.39059    
Fe11     Fe     0.479230000000     0.223550000000     0.622410000000     1.38131    
Fe12     Fe     0.475800000000     0.315850000000     0.600680000000     1.36356    
Fe13     Fe     0.246400000000     0.949920000000     0.371300000000     1.34979    
Fe14     Fe     0.242940000000     0.853770000000     0.352890000000     1.36276    
Fe15     Fe     0.340540000000     0.947710000000     0.361370000000     1.38339    
Fe16     Fe     0.381510000000     0.718710000000     0.112700000000     1.39059    
Fe17     Fe     0.479230000000     0.723550000000     0.122410000000     1.38113    
Fe18     Fe     0.475800000000     0.815850000000     0.100670000000     1.36372    
Fe19     Fe     0.246400000000     0.949920000000     0.871300000000     1.34979    
Fe20     Fe     0.242940000000     0.853770000000     0.852890000000     1.36272    
Fe21     Fe     0.340540000000     0.947710000000     0.861370000000     1.38342    
Fe22     Fe     0.381510000000     0.718710000000     0.612700000000     1.39061    
Fe23     Fe     0.479230000000     0.723550000000     0.622410000000     1.381      
Fe24     Fe     0.475800000000     0.815850000000     0.600680000000     1.36373    
Fe25     Fe     0.746390000000     0.449910000000     0.371300000000     1.34959    
Fe26     Fe     0.742940000000     0.353770000000     0.352890000000     1.36298    
Fe27     Fe     0.840540000000     0.447710000000     0.361370000000     1.38349    
Fe28     Fe     0.881510000000     0.218710000000     0.112700000000     1.39039    
Fe29     Fe     0.979230000000     0.223550000000     0.122410000000     1.37967    
Fe30     Fe     0.975800000000     0.315850000000     0.100670000000     1.36187    
Fe31     Fe     0.746390000000     0.449910000000     0.871300000000     1.3496     
Fe32     Fe     0.742940000000     0.353770000000     0.852890000000     1.36294    
Fe33     Fe     0.840540000000     0.447710000000     0.861370000000     1.38353    
Fe34     Fe     0.881510000000     0.218710000000     0.612700000000     1.39042    
Fe35     Fe     0.979230000000     0.223550000000     0.622410000000     1.37954    
Fe36     Fe     0.975800000000     0.315850000000     0.600680000000     1.36188    
Fe37     Fe     0.746400000000     0.949920000000     0.371300000000     1.34977    
Fe38     Fe     0.742940000000     0.853770000000     0.352890000000     1.36274    
Fe39     Fe     0.840530000000     0.947710000000     0.361370000000     1.38351    
Fe40     Fe     0.881510000000     0.718710000000     0.112700000000     1.39049    
Fe41     Fe     0.979230000000     0.723550000000     0.122410000000     1.37937    
Fe42     Fe     0.975800000000     0.815850000000     0.100670000000     1.36206    
Fe43     Fe     0.746400000000     0.949920000000     0.871300000000     1.34977    
Fe44     Fe     0.742940000000     0.853770000000     0.852890000000     1.36271    
Fe45     Fe     0.840530000000     0.947710000000     0.861370000000     1.38354    
Fe46     Fe     0.881510000000     0.718710000000     0.612700000000     1.39051    
Fe47     Fe     0.979230000000     0.723550000000     0.622410000000     1.37925    
Fe48     Fe     0.975800000000     0.815850000000     0.600680000000     1.36207    
H1       H      0.124860000000     0.348790000000     0.070800000000     0.143988   
H2       H      0.196970000000     0.387390000000     0.013670000000     0.044794   
H3       H      0.094170000000     0.301370000000     0.405030000000     0.0670967  
H4       H      0.530410000000     0.336860000000     0.254090000000     0.0411522  
H5       H      0.098620000000     0.371410000000     0.310760000000     0.0465526  
H6       H      0.199680000000     0.366480000000     0.210820000000     0.0717934  
H7       H      0.305140000000     0.127940000000     0.216080000000     0.0416644  
H8       H      0.267990000000     0.554940000000     0.269260000000     0.0453663  
H9       H      0.415760000000     0.575110000000     0.293890000000     0.0696156  
H10      H      0.278890000000     0.533050000000     0.479940000000     0.0442775  
H11      H      0.312190000000     0.099800000000     0.536700000000     0.0520915  
H12      H      0.458070000000     0.111520000000     0.026680000000     0.0696797  
H13      H      0.442840000000     0.360680000000     0.489340000000     0.0468947  
H14      H      0.409520000000     0.394490000000     0.433680000000     0.0538892  
H15      H      0.259690000000     0.266610000000     0.955030000000     0.0679558  
H16      H      0.414380000000     0.436230000000     0.253870000000     0.0416862  
H17      H      0.452650000000     0.403370000000     0.199250000000     0.0434518  
H18      H      0.311600000000     0.260990000000     0.190890000000     0.0706984  
H19      H      0.124860000000     0.348790000000     0.570800000000     0.143985   
H20      H      0.196970000000     0.387390000000     0.513670000000     0.0447944  
H21      H      0.094170000000     0.301370000000     0.905030000000     0.06709    
H22      H      0.530410000000     0.336860000000     0.754090000000     0.0411557  
H23      H      0.098620000000     0.371410000000     0.810760000000     0.0465504  
H24      H      0.199680000000     0.366480000000     0.710820000000     0.0717918  
H25      H      0.305140000000     0.127940000000     0.716080000000     0.0416655  
H26      H      0.267990000000     0.554940000000     0.769260000000     0.0453571  
H27      H      0.415760000000     0.575110000000     0.793890000000     0.0696117  
H28      H      0.278890000000     0.533050000000     0.979940000000     0.0442818  
H29      H      0.312190000000     0.099800000000     0.036710000000     0.052084   
H30      H      0.458070000000     0.111520000000     0.526680000000     0.069688   
H31      H      0.442840000000     0.360680000000     0.989340000000     0.0468917  
H32      H      0.409520000000     0.394490000000     0.933680000000     0.0538876  
H33      H      0.259690000000     0.266610000000     0.455020000000     0.0679743  
H34      H      0.414380000000     0.436230000000     0.753870000000     0.0416855  
H35      H      0.452650000000     0.403370000000     0.699250000000     0.0434508  
H36      H      0.311600000000     0.260990000000     0.690890000000     0.0707004  
H37      H      0.124860000000     0.848790000000     0.070800000000     0.143992   
H38      H      0.196980000000     0.887390000000     0.013670000000     0.0447717  
H39      H      0.094170000000     0.801370000000     0.405030000000     0.0670945  
H40      H      0.530410000000     0.836860000000     0.254090000000     0.0411456  
H41      H      0.098610000000     0.871400000000     0.310760000000     0.046538   
H42      H      0.199680000000     0.866480000000     0.210820000000     0.0717815  
H43      H      0.305140000000     0.627940000000     0.216080000000     0.0416497  
H44      H      0.267990000000     0.054940000000     0.269260000000     0.0454094  
H45      H      0.415760000000     0.075110000000     0.293890000000     0.0696372  
H46      H      0.278890000000     0.033050000000     0.479940000000     0.0443311  
H47      H      0.312190000000     0.599800000000     0.536700000000     0.0520564  
H48      H      0.458070000000     0.611520000000     0.026680000000     0.0696665  
H49      H      0.442840000000     0.860680000000     0.489340000000     0.0468782  
H50      H      0.409510000000     0.894480000000     0.433680000000     0.0538801  
H51      H      0.259690000000     0.766610000000     0.955030000000     0.067953   
H52      H      0.414380000000     0.936240000000     0.253870000000     0.0416614  
H53      H      0.452650000000     0.903370000000     0.199250000000     0.0434252  
H54      H      0.311600000000     0.760990000000     0.190890000000     0.0706934  
H55      H      0.124860000000     0.848790000000     0.570800000000     0.143989   
H56      H      0.196980000000     0.887390000000     0.513670000000     0.0447721  
H57      H      0.094170000000     0.801370000000     0.905030000000     0.0670878  
H58      H      0.530410000000     0.836860000000     0.754090000000     0.0411491  
H59      H      0.098610000000     0.871400000000     0.810760000000     0.0465358  
H60      H      0.199680000000     0.866480000000     0.710820000000     0.0717798  
H61      H      0.305140000000     0.627940000000     0.716080000000     0.0416509  
H62      H      0.267990000000     0.054940000000     0.769260000000     0.0454003  
H63      H      0.415760000000     0.075110000000     0.793890000000     0.0696334  
H64      H      0.278890000000     0.033050000000     0.979940000000     0.0443354  
H65      H      0.312190000000     0.599800000000     0.036710000000     0.0520488  
H66      H      0.458070000000     0.611520000000     0.526680000000     0.0696747  
H67      H      0.442840000000     0.860680000000     0.989340000000     0.0468752  
H68      H      0.409510000000     0.894480000000     0.933680000000     0.0538784  
H69      H      0.259690000000     0.766610000000     0.455020000000     0.0679714  
H70      H      0.414380000000     0.936240000000     0.753870000000     0.0416606  
H71      H      0.452650000000     0.903370000000     0.699250000000     0.0434241  
H72      H      0.311600000000     0.760990000000     0.690890000000     0.0706954  
H73      H      0.624860000000     0.348790000000     0.070800000000     0.143988   
H74      H      0.696970000000     0.387390000000     0.013670000000     0.0447801  
H75      H      0.594170000000     0.301370000000     0.405030000000     0.0669035  
H76      H      0.030410000000     0.336860000000     0.254090000000     0.0414973  
H77      H      0.598620000000     0.371410000000     0.310760000000     0.0463921  
H78      H      0.699680000000     0.366480000000     0.210820000000     0.0717967  
H79      H      0.805140000000     0.127940000000     0.216080000000     0.0416329  
H80      H      0.767990000000     0.554940000000     0.269260000000     0.0453128  
H81      H      0.915760000000     0.575110000000     0.293890000000     0.0695398  
H82      H      0.778890000000     0.533050000000     0.479940000000     0.0442349  
H83      H      0.812190000000     0.099800000000     0.536700000000     0.0520659  
H84      H      0.958070000000     0.111520000000     0.026680000000     0.0695255  
H85      H      0.942840000000     0.360680000000     0.489340000000     0.0467104  
H86      H      0.909520000000     0.394490000000     0.433680000000     0.0537965  
H87      H      0.759690000000     0.266610000000     0.955030000000     0.0679026  
H88      H      0.914380000000     0.436230000000     0.253870000000     0.0415838  
H89      H      0.952650000000     0.403370000000     0.199250000000     0.0432694  
H90      H      0.811600000000     0.260990000000     0.190890000000     0.0706487  
H91      H      0.624860000000     0.348790000000     0.570800000000     0.143985   
H92      H      0.696970000000     0.387390000000     0.513670000000     0.0447805  
H93      H      0.594170000000     0.301370000000     0.905030000000     0.0668969  
H94      H      0.030410000000     0.336860000000     0.754090000000     0.0415008  
H95      H      0.598620000000     0.371410000000     0.810760000000     0.04639    
H96      H      0.699680000000     0.366480000000     0.710820000000     0.071795   
H97      H      0.805140000000     0.127940000000     0.716080000000     0.0416341  
H98      H      0.767990000000     0.554940000000     0.769260000000     0.0453037  
H99      H      0.915760000000     0.575110000000     0.793890000000     0.069536   
H100     H      0.778890000000     0.533050000000     0.979940000000     0.0442392  
H101     H      0.812190000000     0.099800000000     0.036710000000     0.0520584  
H102     H      0.958070000000     0.111520000000     0.526680000000     0.0695337  
H103     H      0.942840000000     0.360680000000     0.989340000000     0.0467074  
H104     H      0.909520000000     0.394490000000     0.933680000000     0.0537949  
H105     H      0.759690000000     0.266610000000     0.455020000000     0.067921   
H106     H      0.914380000000     0.436230000000     0.753870000000     0.0415831  
H107     H      0.952650000000     0.403370000000     0.699250000000     0.0432684  
H108     H      0.811600000000     0.260990000000     0.690890000000     0.0706507  
H109     H      0.624860000000     0.848790000000     0.070800000000     0.143994   
H110     H      0.696980000000     0.887390000000     0.013670000000     0.0447553  
H111     H      0.594170000000     0.801370000000     0.405030000000     0.0668794  
H112     H      0.030410000000     0.836860000000     0.254090000000     0.0414923  
H113     H      0.598620000000     0.871400000000     0.310760000000     0.046382   
H114     H      0.699680000000     0.866480000000     0.210820000000     0.071772   
H115     H      0.805140000000     0.627940000000     0.216080000000     0.0416164  
H116     H      0.767990000000     0.054940000000     0.269260000000     0.0453596  
H117     H      0.915760000000     0.075110000000     0.293890000000     0.0695657  
H118     H      0.778890000000     0.033050000000     0.479940000000     0.0442937  
H119     H      0.812190000000     0.599800000000     0.536700000000     0.0520489  
H120     H      0.958070000000     0.611520000000     0.026680000000     0.069513   
H121     H      0.942840000000     0.860680000000     0.489340000000     0.0466946  
H122     H      0.909520000000     0.894480000000     0.433680000000     0.0537828  
H123     H      0.759690000000     0.766610000000     0.955030000000     0.0678993  
H124     H      0.914380000000     0.936240000000     0.253870000000     0.0415677  
H125     H      0.952650000000     0.903370000000     0.199250000000     0.0432367  
H126     H      0.811600000000     0.760990000000     0.190890000000     0.0706655  
H127     H      0.624860000000     0.848790000000     0.570800000000     0.143991   
H128     H      0.696980000000     0.887390000000     0.513670000000     0.0447556  
H129     H      0.594170000000     0.801370000000     0.905030000000     0.0668728  
H130     H      0.030410000000     0.836860000000     0.754090000000     0.0414958  
H131     H      0.598620000000     0.871400000000     0.810760000000     0.0463798  
H132     H      0.699680000000     0.866480000000     0.710820000000     0.0717704  
H133     H      0.805140000000     0.627940000000     0.716080000000     0.0416176  
H134     H      0.767990000000     0.054940000000     0.769260000000     0.0453505  
H135     H      0.915760000000     0.075110000000     0.793890000000     0.0695619  
H136     H      0.778890000000     0.033050000000     0.979940000000     0.044298   
H137     H      0.812190000000     0.599800000000     0.036710000000     0.0520414  
H138     H      0.958070000000     0.611520000000     0.526680000000     0.0695212  
H139     H      0.942840000000     0.860680000000     0.989340000000     0.0466917  
H140     H      0.909520000000     0.894480000000     0.933680000000     0.0537813  
H141     H      0.759690000000     0.766610000000     0.455020000000     0.0679177  
H142     H      0.914380000000     0.936240000000     0.753870000000     0.041567   
H143     H      0.952650000000     0.903370000000     0.699250000000     0.0432357  
H144     H      0.811600000000     0.760990000000     0.690890000000     0.0706675  
N1       N      0.150100000000     0.346290000000     0.455750000000    -0.191933   
N2       N      0.570170000000     0.305730000000     0.017950000000    -0.200042   
N3       N      0.509930000000     0.260540000000     0.454430000000    -0.0312099  
N4       N      0.153590000000     0.370030000000     0.265180000000    -0.184475   
N5       N      0.576700000000     0.334920000000     0.199400000000    -0.205695   
N6       N      0.134650000000     0.335930000000     0.139560000000    -0.0197272  
N7       N      0.338860000000     0.558400000000     0.284160000000    -0.189692   
N8       N      0.381270000000     0.141550000000     0.223180000000    -0.209792   
N9       N      0.466460000000     0.156920000000     0.243090000000    -0.0299748  
N10      N      0.388120000000     0.111580000000     0.035210000000    -0.187945   
N11      N      0.348560000000     0.532080000000     0.469790000000    -0.205695   
N12      N      0.431060000000     0.534940000000     0.467390000000    -0.0310549  
N13      N      0.331720000000     0.333540000000     0.440830000000    -0.187712   
N14      N      0.371100000000     0.293500000000     0.005380000000    -0.206885   
N15      N      0.285000000000     0.219680000000     0.018360000000    -0.0290269  
N16      N      0.385090000000     0.329650000000     0.191480000000    -0.190014   
N17      N      0.341580000000     0.366530000000     0.254780000000    -0.207751   
N18      N      0.260270000000     0.284610000000     0.246680000000    -0.0291771  
N19      N      0.150100000000     0.346290000000     0.955750000000    -0.191985   
N20      N      0.570170000000     0.305730000000     0.517950000000    -0.200059   
N21      N      0.509930000000     0.260540000000     0.954430000000    -0.0312058  
N22      N      0.153590000000     0.370030000000     0.765180000000    -0.184476   
N23      N      0.576700000000     0.334920000000     0.699400000000    -0.205677   
N24      N      0.134650000000     0.335930000000     0.639560000000    -0.0197267  
N25      N      0.338860000000     0.558400000000     0.784160000000    -0.189685   
N26      N      0.381270000000     0.141550000000     0.723180000000    -0.209791   
N27      N      0.466460000000     0.156920000000     0.743090000000    -0.0299752  
N28      N      0.388120000000     0.111580000000     0.535210000000    -0.187892   
N29      N      0.348560000000     0.532080000000     0.969790000000    -0.205692   
N30      N      0.431060000000     0.534940000000     0.967390000000    -0.0310593  
N31      N      0.331720000000     0.333540000000     0.940830000000    -0.187724   
N32      N      0.371100000000     0.293500000000     0.505380000000    -0.206928   
N33      N      0.285000000000     0.219680000000     0.518370000000    -0.0290488  
N34      N      0.385090000000     0.329650000000     0.691480000000    -0.190019   
N35      N      0.341580000000     0.366530000000     0.754780000000    -0.207739   
N36      N      0.260270000000     0.284610000000     0.746680000000    -0.029169   
N37      N      0.150100000000     0.846290000000     0.455750000000    -0.191938   
N38      N      0.570170000000     0.805730000000     0.017950000000    -0.200007   
N39      N      0.509930000000     0.760540000000     0.454430000000    -0.0312034  
N40      N      0.153590000000     0.870030000000     0.265180000000    -0.184444   
N41      N      0.576700000000     0.834920000000     0.199400000000    -0.205695   
N42      N      0.134650000000     0.835930000000     0.139560000000    -0.0197273  
N43      N      0.338860000000     0.058400000000     0.284160000000    -0.189718   
N44      N      0.381270000000     0.641550000000     0.223180000000    -0.209792   
N45      N      0.466460000000     0.656920000000     0.243090000000    -0.0299862  
N46      N      0.388120000000     0.611580000000     0.035210000000    -0.187967   
N47      N      0.348560000000     0.032080000000     0.469790000000    -0.205593   
N48      N      0.431060000000     0.034940000000     0.467390000000    -0.0309398  
N49      N      0.331720000000     0.833540000000     0.440830000000    -0.187704   
N50      N      0.371100000000     0.793500000000     0.005380000000    -0.206889   
N51      N      0.285000000000     0.719680000000     0.018360000000    -0.0290296  
N52      N      0.385090000000     0.829650000000     0.191480000000    -0.19002    
N53      N      0.341580000000     0.866530000000     0.254780000000    -0.20769    
N54      N      0.260270000000     0.784610000000     0.246680000000    -0.0291704  
N55      N      0.150100000000     0.846290000000     0.955750000000    -0.191989   
N56      N      0.570170000000     0.805730000000     0.517950000000    -0.200024   
N57      N      0.509930000000     0.760540000000     0.954430000000    -0.0311993  
N58      N      0.153590000000     0.870030000000     0.765180000000    -0.184445   
N59      N      0.576700000000     0.834920000000     0.699400000000    -0.205676   
N60      N      0.134650000000     0.835930000000     0.639560000000    -0.0197268  
N61      N      0.338860000000     0.058400000000     0.784160000000    -0.189711   
N62      N      0.381270000000     0.641550000000     0.723180000000    -0.20979    
N63      N      0.466460000000     0.656920000000     0.743090000000    -0.0299866  
N64      N      0.388120000000     0.611580000000     0.535210000000    -0.187914   
N65      N      0.348560000000     0.032080000000     0.969790000000    -0.20559    
N66      N      0.431060000000     0.034940000000     0.967390000000    -0.0309442  
N67      N      0.331720000000     0.833540000000     0.940830000000    -0.187716   
N68      N      0.371100000000     0.793500000000     0.505380000000    -0.206932   
N69      N      0.285000000000     0.719680000000     0.518370000000    -0.0290515  
N70      N      0.385090000000     0.829650000000     0.691480000000    -0.190025   
N71      N      0.341580000000     0.866530000000     0.754780000000    -0.207678   
N72      N      0.260270000000     0.784610000000     0.746680000000    -0.0291623  
N73      N      0.650100000000     0.346290000000     0.455750000000    -0.191932   
N74      N      0.070170000000     0.305730000000     0.017950000000    -0.199922   
N75      N      0.009930000000     0.260540000000     0.454430000000    -0.0301318  
N76      N      0.653590000000     0.370030000000     0.265180000000    -0.184453   
N77      N      0.076700000000     0.334920000000     0.199400000000    -0.205573   
N78      N      0.634650000000     0.335930000000     0.139560000000    -0.0197222  
N79      N      0.838860000000     0.558400000000     0.284160000000    -0.189707   
N80      N      0.881270000000     0.141550000000     0.223180000000    -0.209771   
N81      N      0.966460000000     0.156920000000     0.243090000000    -0.0299467  
N82      N      0.888120000000     0.111580000000     0.035210000000    -0.187951   
N83      N      0.848560000000     0.532080000000     0.469790000000    -0.205659   
N84      N      0.931060000000     0.534940000000     0.467390000000    -0.0310384  
N85      N      0.831720000000     0.333540000000     0.440830000000    -0.187722   
N86      N      0.871100000000     0.293500000000     0.005380000000    -0.206869   
N87      N      0.785000000000     0.219680000000     0.018360000000    -0.0290212  
N88      N      0.885080000000     0.329650000000     0.191480000000    -0.189979   
N89      N      0.841580000000     0.366530000000     0.254780000000    -0.207752   
N90      N      0.760270000000     0.284610000000     0.246680000000    -0.0291646  
N91      N      0.650100000000     0.346290000000     0.955750000000    -0.191983   
N92      N      0.070170000000     0.305730000000     0.517950000000    -0.199939   
N93      N      0.009930000000     0.260540000000     0.954430000000    -0.030128   
N94      N      0.653590000000     0.370030000000     0.765180000000    -0.184454   
N95      N      0.076700000000     0.334920000000     0.699400000000    -0.205555   
N96      N      0.634650000000     0.335930000000     0.639560000000    -0.0197217  
N97      N      0.838860000000     0.558400000000     0.784160000000    -0.1897     
N98      N      0.881270000000     0.141550000000     0.723180000000    -0.209769   
N99      N      0.966460000000     0.156920000000     0.743090000000    -0.0299471  
N100     N      0.888120000000     0.111580000000     0.535210000000    -0.187897   
N101     N      0.848560000000     0.532080000000     0.969790000000    -0.205656   
N102     N      0.931060000000     0.534940000000     0.967390000000    -0.0310428  
N103     N      0.831720000000     0.333540000000     0.940830000000    -0.187734   
N104     N      0.871100000000     0.293500000000     0.505380000000    -0.206911   
N105     N      0.785000000000     0.219680000000     0.518370000000    -0.029043   
N106     N      0.885080000000     0.329650000000     0.691480000000    -0.189983   
N107     N      0.841580000000     0.366530000000     0.754780000000    -0.207739   
N108     N      0.760270000000     0.284610000000     0.746680000000    -0.0291565  
N109     N      0.650100000000     0.846290000000     0.455750000000    -0.191956   
N110     N      0.070170000000     0.805730000000     0.017950000000    -0.199892   
N111     N      0.009930000000     0.760540000000     0.454430000000    -0.0301269  
N112     N      0.653590000000     0.870030000000     0.265180000000    -0.18446    
N113     N      0.076700000000     0.834920000000     0.199400000000    -0.205575   
N114     N      0.634650000000     0.835930000000     0.139560000000    -0.0197193  
N115     N      0.838860000000     0.058400000000     0.284160000000    -0.189735   
N116     N      0.881270000000     0.641550000000     0.223180000000    -0.209771   
N117     N      0.966460000000     0.656920000000     0.243090000000    -0.0299448  
N118     N      0.888120000000     0.611580000000     0.035210000000    -0.18795    
N119     N      0.848560000000     0.032080000000     0.469790000000    -0.20559    
N120     N      0.931060000000     0.034940000000     0.467390000000    -0.0309304  
N121     N      0.831720000000     0.833540000000     0.440830000000    -0.187711   
N122     N      0.871100000000     0.793500000000     0.005380000000    -0.206875   
N123     N      0.785000000000     0.719680000000     0.018360000000    -0.0290199  
N124     N      0.885090000000     0.829650000000     0.191480000000    -0.19004    
N125     N      0.841580000000     0.866530000000     0.254780000000    -0.207694   
N126     N      0.760270000000     0.784610000000     0.246680000000    -0.0291513  
N127     N      0.650100000000     0.846290000000     0.955750000000    -0.192007   
N128     N      0.070170000000     0.805730000000     0.517950000000    -0.199909   
N129     N      0.009930000000     0.760540000000     0.954430000000    -0.030123   
N130     N      0.653590000000     0.870030000000     0.765180000000    -0.184461   
N131     N      0.076700000000     0.834920000000     0.699400000000    -0.205557   
N132     N      0.634650000000     0.835930000000     0.639560000000    -0.0197188  
N133     N      0.838860000000     0.058400000000     0.784160000000    -0.189728   
N134     N      0.881270000000     0.641550000000     0.723180000000    -0.209769   
N135     N      0.966460000000     0.656920000000     0.743090000000    -0.0299452  
N136     N      0.888120000000     0.611580000000     0.535210000000    -0.187896   
N137     N      0.848560000000     0.032080000000     0.969790000000    -0.205587   
N138     N      0.931060000000     0.034940000000     0.967390000000    -0.0309348  
N139     N      0.831720000000     0.833540000000     0.940830000000    -0.187723   
N140     N      0.871100000000     0.793500000000     0.505380000000    -0.206917   
N141     N      0.785000000000     0.719680000000     0.518370000000    -0.0290417  
N142     N      0.885090000000     0.829650000000     0.691480000000    -0.190045   
N143     N      0.841580000000     0.866530000000     0.754780000000    -0.207681   
N144     N      0.760270000000     0.784610000000     0.746680000000    -0.0291432  
O1       O      0.349250000000     0.507690000000     0.336470000000    -0.49808    
O2       O      0.266620000000     0.339540000000     0.405710000000    -0.483881   
O3       O      0.271800000000     0.488070000000     0.318840000000    -0.491837   
O4       O      0.294450000000     0.499640000000     0.408690000000    -0.497346   
O5       O      0.342390000000     0.428980000000     0.301760000000    -0.496002   
O6       O      0.187370000000     0.342500000000     0.388240000000    -0.481888   
O7       O      0.277130000000     0.417430000000     0.361940000000    -0.88232    
O8       O      0.218560000000     0.364210000000     0.298750000000    -0.471342   
O9       O      0.189890000000     0.407920000000     0.334810000000    -0.478011   
O10      O      0.345480000000     0.469720000000     0.420800000000    -0.479808   
O11      O      0.220230000000     0.415070000000     0.425220000000    -0.488539   
O12      O      0.288980000000     0.348470000000     0.316360000000    -0.487057   
O13      O      0.345190000000     0.394110000000     0.386520000000    -0.495062   
O14      O      0.427090000000     0.316220000000     0.064360000000    -0.503647   
O15      O      0.506810000000     0.262650000000     0.173930000000    -0.476715   
O16      O      0.376370000000     0.234310000000     0.052720000000    -0.478829   
O17      O      0.374080000000     0.270890000000     0.136570000000    -0.496034   
O18      O      0.500890000000     0.305450000000     0.047120000000    -0.48315    
O19      O      0.434440000000     0.174600000000     0.161960000000    -0.494899   
O20      O      0.445100000000     0.252340000000     0.111950000000    -0.884683   
O21      O      0.453740000000     0.181840000000     0.071730000000    -0.482183   
O22      O      0.375460000000     0.159200000000     0.089300000000    -0.501376   
O23      O      0.451860000000     0.330050000000     0.153300000000    -0.491145   
O24      O      0.379220000000     0.199530000000     0.172710000000    -0.501697   
O25      O      0.532980000000     0.265610000000     0.084820000000    -0.481688   
O26      O      0.533620000000     0.333330000000     0.134680000000    -0.481803   
O27      O      0.476840000000     0.220650000000     0.477940000000    -0.0793976  
O28      O      0.498360000000     0.266930000000     0.412570000000    -0.0922753  
O29      O      0.144320000000     0.298750000000     0.131560000000    -0.0905804  
O30      O      0.128060000000     0.360280000000     0.104920000000    -0.176152   
O31      O      0.492800000000     0.133480000000     0.239810000000    -0.0909621  
O32      O      0.489860000000     0.206080000000     0.252730000000    -0.0771134  
O33      O      0.422180000000     0.488810000000     0.978150000000    -0.0883716  
O34      O      0.475290000000     0.568160000000     0.450390000000    -0.09187    
O35      O      0.249680000000     0.180760000000     0.995400000000    -0.0927489  
O36      O      0.281580000000     0.220120000000     0.063160000000    -0.0985693  
O37      O      0.243330000000     0.236440000000     0.257790000000    -0.0924191  
O38      O      0.227870000000     0.299350000000     0.235800000000    -0.0819684  
O39      O      0.349250000000     0.507690000000     0.836480000000    -0.498049   
O40      O      0.266620000000     0.339540000000     0.905710000000    -0.483874   
O41      O      0.271800000000     0.488070000000     0.818840000000    -0.491807   
O42      O      0.294450000000     0.499640000000     0.908690000000    -0.497337   
O43      O      0.342390000000     0.428980000000     0.801760000000    -0.496016   
O44      O      0.187370000000     0.342500000000     0.888250000000    -0.481946   
O45      O      0.277130000000     0.417430000000     0.861940000000    -0.882319   
O46      O      0.218560000000     0.364210000000     0.798750000000    -0.471343   
O47      O      0.189890000000     0.407920000000     0.834810000000    -0.478021   
O48      O      0.345480000000     0.469720000000     0.920800000000    -0.479807   
O49      O      0.220230000000     0.415070000000     0.925220000000    -0.488593   
O50      O      0.288980000000     0.348470000000     0.816360000000    -0.48705    
O51      O      0.345190000000     0.394110000000     0.886520000000    -0.495067   
O52      O      0.427090000000     0.316220000000     0.564360000000    -0.503584   
O53      O      0.506810000000     0.262650000000     0.673940000000    -0.476592   
O54      O      0.376370000000     0.234310000000     0.552720000000    -0.478823   
O55      O      0.374080000000     0.270890000000     0.636570000000    -0.496055   
O56      O      0.500890000000     0.305450000000     0.547120000000    -0.483047   
O57      O      0.434440000000     0.174600000000     0.661960000000    -0.494893   
O58      O      0.445100000000     0.252340000000     0.611950000000    -0.884705   
O59      O      0.453740000000     0.181840000000     0.571730000000    -0.482199   
O60      O      0.375460000000     0.159200000000     0.589300000000    -0.501448   
O61      O      0.451860000000     0.330050000000     0.653300000000    -0.491256   
O62      O      0.379220000000     0.199530000000     0.672710000000    -0.5017     
O63      O      0.532980000000     0.265610000000     0.584820000000    -0.481666   
O64      O      0.533620000000     0.333330000000     0.634680000000    -0.481851   
O65      O      0.476840000000     0.220650000000     0.977940000000    -0.0794276  
O66      O      0.498360000000     0.266930000000     0.912570000000    -0.0922803  
O67      O      0.144320000000     0.298750000000     0.631560000000    -0.090586   
O68      O      0.128060000000     0.360280000000     0.604920000000    -0.176152   
O69      O      0.492800000000     0.133480000000     0.739810000000    -0.0909648  
O70      O      0.489860000000     0.206080000000     0.752730000000    -0.0771106  
O71      O      0.422180000000     0.488810000000     0.478150000000    -0.0883619  
O72      O      0.475290000000     0.568160000000     0.950390000000    -0.0918811  
O73      O      0.249680000000     0.180760000000     0.495400000000    -0.092723   
O74      O      0.281580000000     0.220120000000     0.563160000000    -0.0985769  
O75      O      0.243330000000     0.236440000000     0.757790000000    -0.0924195  
O76      O      0.227870000000     0.299350000000     0.735800000000    -0.0819719  
O77      O      0.349250000000     0.007690000000     0.336470000000    -0.497966   
O78      O      0.266620000000     0.839540000000     0.405710000000    -0.483851   
O79      O      0.271800000000     0.988070000000     0.318840000000    -0.492088   
O80      O      0.294450000000     0.999640000000     0.408690000000    -0.497449   
O81      O      0.342390000000     0.928980000000     0.301760000000    -0.496108   
O82      O      0.187370000000     0.842500000000     0.388240000000    -0.481836   
O83      O      0.277130000000     0.917440000000     0.361940000000    -0.882125   
O84      O      0.218570000000     0.864210000000     0.298750000000    -0.471221   
O85      O      0.189890000000     0.907920000000     0.334810000000    -0.477943   
O86      O      0.345480000000     0.969720000000     0.420800000000    -0.479791   
O87      O      0.220230000000     0.915070000000     0.425220000000    -0.488518   
O88      O      0.288980000000     0.848460000000     0.316360000000    -0.486863   
O89      O      0.345190000000     0.894110000000     0.386520000000    -0.495052   
O90      O      0.427090000000     0.816220000000     0.064360000000    -0.503661   
O91      O      0.506810000000     0.762650000000     0.173930000000    -0.476677   
O92      O      0.376380000000     0.734310000000     0.052720000000    -0.478832   
O93      O      0.374080000000     0.770890000000     0.136570000000    -0.496039   
O94      O      0.500890000000     0.805450000000     0.047120000000    -0.483237   
O95      O      0.434440000000     0.674600000000     0.161960000000    -0.494862   
O96      O      0.445100000000     0.752350000000     0.111950000000    -0.884661   
O97      O      0.453740000000     0.681840000000     0.071730000000    -0.482078   
O98      O      0.375460000000     0.659200000000     0.089300000000    -0.501483   
O99      O      0.451860000000     0.830050000000     0.153300000000    -0.491169   
O100     O      0.379220000000     0.699530000000     0.172710000000    -0.501698   
O101     O      0.532990000000     0.765610000000     0.084820000000    -0.481473   
O102     O      0.533620000000     0.833330000000     0.134680000000    -0.481847   
O103     O      0.476840000000     0.720650000000     0.477940000000    -0.0793938  
O104     O      0.498360000000     0.766930000000     0.412570000000    -0.0922836  
O105     O      0.144320000000     0.798750000000     0.131560000000    -0.0905853  
O106     O      0.128060000000     0.860280000000     0.104920000000    -0.176181   
O107     O      0.492810000000     0.633480000000     0.239810000000    -0.0909891  
O108     O      0.489860000000     0.706080000000     0.252730000000    -0.0771124  
O109     O      0.422180000000     0.988810000000     0.978150000000    -0.0885319  
O110     O      0.475280000000     0.068160000000     0.450390000000    -0.0918214  
O111     O      0.249680000000     0.680760000000     0.995400000000    -0.0927715  
O112     O      0.281580000000     0.720120000000     0.063160000000    -0.0985924  
O113     O      0.243330000000     0.736440000000     0.257790000000    -0.0924272  
O114     O      0.227870000000     0.799350000000     0.235800000000    -0.0819769  
O115     O      0.349250000000     0.007690000000     0.836480000000    -0.497935   
O116     O      0.266620000000     0.839540000000     0.905710000000    -0.483844   
O117     O      0.271800000000     0.988070000000     0.818840000000    -0.492058   
O118     O      0.294450000000     0.999640000000     0.908690000000    -0.49744    
O119     O      0.342390000000     0.928980000000     0.801760000000    -0.496122   
O120     O      0.187370000000     0.842500000000     0.888250000000    -0.481894   
O121     O      0.277130000000     0.917440000000     0.861940000000    -0.882124   
O122     O      0.218570000000     0.864210000000     0.798750000000    -0.471222   
O123     O      0.189890000000     0.907920000000     0.834810000000    -0.477953   
O124     O      0.345480000000     0.969720000000     0.920800000000    -0.47979    
O125     O      0.220230000000     0.915070000000     0.925220000000    -0.488572   
O126     O      0.288980000000     0.848460000000     0.816360000000    -0.486855   
O127     O      0.345190000000     0.894110000000     0.886520000000    -0.495056   
O128     O      0.427090000000     0.816220000000     0.564360000000    -0.503598   
O129     O      0.506810000000     0.762650000000     0.673940000000    -0.476553   
O130     O      0.376380000000     0.734310000000     0.552720000000    -0.478826   
O131     O      0.374080000000     0.770890000000     0.636570000000    -0.496061   
O132     O      0.500890000000     0.805450000000     0.547120000000    -0.483134   
O133     O      0.434440000000     0.674600000000     0.661960000000    -0.494856   
O134     O      0.445100000000     0.752350000000     0.611950000000    -0.884682   
O135     O      0.453740000000     0.681840000000     0.571730000000    -0.482094   
O136     O      0.375460000000     0.659200000000     0.589300000000    -0.501555   
O137     O      0.451860000000     0.830050000000     0.653300000000    -0.49128    
O138     O      0.379220000000     0.699530000000     0.672710000000    -0.5017     
O139     O      0.532990000000     0.765610000000     0.584820000000    -0.481451   
O140     O      0.533620000000     0.833330000000     0.634680000000    -0.481895   
O141     O      0.476840000000     0.720650000000     0.977940000000    -0.0794238  
O142     O      0.498360000000     0.766930000000     0.912570000000    -0.0922886  
O143     O      0.144320000000     0.798750000000     0.631560000000    -0.0905909  
O144     O      0.128060000000     0.860280000000     0.604920000000    -0.176181   
O145     O      0.492810000000     0.633480000000     0.739810000000    -0.0909918  
O146     O      0.489860000000     0.706080000000     0.752730000000    -0.0771095  
O147     O      0.422180000000     0.988810000000     0.478150000000    -0.0885221  
O148     O      0.475280000000     0.068160000000     0.950390000000    -0.0918326  
O149     O      0.249680000000     0.680760000000     0.495400000000    -0.0927456  
O150     O      0.281580000000     0.720120000000     0.563160000000    -0.0986     
O151     O      0.243330000000     0.736440000000     0.757790000000    -0.0924277  
O152     O      0.227870000000     0.799350000000     0.735800000000    -0.0819804  
O153     O      0.849250000000     0.507690000000     0.336470000000    -0.498094   
O154     O      0.766620000000     0.339540000000     0.405710000000    -0.4839     
O155     O      0.771800000000     0.488070000000     0.318840000000    -0.491817   
O156     O      0.794440000000     0.499640000000     0.408690000000    -0.497197   
O157     O      0.842390000000     0.428980000000     0.301760000000    -0.496015   
O158     O      0.687370000000     0.342500000000     0.388240000000    -0.48194    
O159     O      0.777130000000     0.417430000000     0.361940000000    -0.882118   
O160     O      0.718570000000     0.364210000000     0.298750000000    -0.471264   
O161     O      0.689890000000     0.407920000000     0.334810000000    -0.478058   
O162     O      0.845480000000     0.469720000000     0.420800000000    -0.479751   
O163     O      0.720230000000     0.415070000000     0.425220000000    -0.488549   
O164     O      0.788980000000     0.348470000000     0.316360000000    -0.487063   
O165     O      0.845190000000     0.394110000000     0.386520000000    -0.495093   
O166     O      0.927100000000     0.316220000000     0.064360000000    -0.503584   
O167     O      0.006810000000     0.262650000000     0.173930000000    -0.475586   
O168     O      0.876380000000     0.234310000000     0.052720000000    -0.478784   
O169     O      0.874070000000     0.270890000000     0.136570000000    -0.495862   
O170     O      0.000890000000     0.305450000000     0.047120000000    -0.482036   
O171     O      0.934440000000     0.174600000000     0.161960000000    -0.494779   
O172     O      0.945100000000     0.252340000000     0.111950000000    -0.884374   
O173     O      0.953740000000     0.181840000000     0.071730000000    -0.482114   
O174     O      0.875460000000     0.159200000000     0.089300000000    -0.501417   
O175     O      0.951860000000     0.330050000000     0.153300000000    -0.491201   
O176     O      0.879220000000     0.199530000000     0.172710000000    -0.501696   
O177     O      0.032980000000     0.265610000000     0.084820000000    -0.480837   
O178     O      0.033620000000     0.333330000000     0.134680000000    -0.480976   
O179     O      0.976840000000     0.220650000000     0.477940000000    -0.0802316  
O180     O      0.998360000000     0.266930000000     0.412570000000    -0.093248   
O181     O      0.644320000000     0.298750000000     0.131560000000    -0.0907304  
O182     O      0.628060000000     0.360280000000     0.104920000000    -0.176219   
O183     O      0.992800000000     0.133480000000     0.239810000000    -0.0913114  
O184     O      0.989860000000     0.206080000000     0.252730000000    -0.0776149  
O185     O      0.922180000000     0.488810000000     0.978150000000    -0.0884999  
O186     O      0.975290000000     0.568160000000     0.450390000000    -0.0921735  
O187     O      0.749680000000     0.180760000000     0.995400000000    -0.0928748  
O188     O      0.781580000000     0.220120000000     0.063160000000    -0.0986345  
O189     O      0.743330000000     0.236440000000     0.257790000000    -0.0925484  
O190     O      0.727870000000     0.299350000000     0.235800000000    -0.0820476  
O191     O      0.849250000000     0.507690000000     0.836480000000    -0.498063   
O192     O      0.766620000000     0.339540000000     0.905710000000    -0.483894   
O193     O      0.771800000000     0.488070000000     0.818840000000    -0.491788   
O194     O      0.794440000000     0.499640000000     0.908690000000    -0.497188   
O195     O      0.842390000000     0.428980000000     0.801760000000    -0.496029   
O196     O      0.687370000000     0.342500000000     0.888250000000    -0.481998   
O197     O      0.777130000000     0.417430000000     0.861940000000    -0.882117   
O198     O      0.718570000000     0.364210000000     0.798750000000    -0.471264   
O199     O      0.689890000000     0.407920000000     0.834810000000    -0.478068   
O200     O      0.845480000000     0.469720000000     0.920800000000    -0.47975    
O201     O      0.720230000000     0.415070000000     0.925220000000    -0.488603   
O202     O      0.788980000000     0.348470000000     0.816360000000    -0.487056   
O203     O      0.845190000000     0.394110000000     0.886520000000    -0.495097   
O204     O      0.927100000000     0.316220000000     0.564360000000    -0.503521   
O205     O      0.006810000000     0.262650000000     0.673940000000    -0.475462   
O206     O      0.876380000000     0.234310000000     0.552720000000    -0.478778   
O207     O      0.874070000000     0.270890000000     0.636570000000    -0.495884   
O208     O      0.000890000000     0.305450000000     0.547120000000    -0.481933   
O209     O      0.934440000000     0.174600000000     0.661960000000    -0.494773   
O210     O      0.945100000000     0.252340000000     0.611950000000    -0.884396   
O211     O      0.953740000000     0.181840000000     0.571730000000    -0.48213    
O212     O      0.875460000000     0.159200000000     0.589300000000    -0.501489   
O213     O      0.951860000000     0.330050000000     0.653300000000    -0.491312   
O214     O      0.879220000000     0.199530000000     0.672710000000    -0.501699   
O215     O      0.032980000000     0.265610000000     0.584820000000    -0.480815   
O216     O      0.033620000000     0.333330000000     0.634680000000    -0.481024   
O217     O      0.976840000000     0.220650000000     0.977940000000    -0.0802613  
O218     O      0.998360000000     0.266930000000     0.912570000000    -0.0932528  
O219     O      0.644320000000     0.298750000000     0.631560000000    -0.090736   
O220     O      0.628060000000     0.360280000000     0.604920000000    -0.176219   
O221     O      0.992800000000     0.133480000000     0.739810000000    -0.0913141  
O222     O      0.989860000000     0.206080000000     0.752730000000    -0.077612   
O223     O      0.922180000000     0.488810000000     0.478150000000    -0.0884903  
O224     O      0.975290000000     0.568160000000     0.950390000000    -0.0921845  
O225     O      0.749680000000     0.180760000000     0.495400000000    -0.0928491  
O226     O      0.781580000000     0.220120000000     0.563160000000    -0.0986421  
O227     O      0.743330000000     0.236440000000     0.757790000000    -0.0925488  
O228     O      0.727870000000     0.299350000000     0.735800000000    -0.0820512  
O229     O      0.849250000000     0.007690000000     0.336470000000    -0.498058   
O230     O      0.766620000000     0.839540000000     0.405710000000    -0.483872   
O231     O      0.771800000000     0.988070000000     0.318840000000    -0.492117   
O232     O      0.794450000000     0.999640000000     0.408690000000    -0.497477   
O233     O      0.842390000000     0.928980000000     0.301760000000    -0.496125   
O234     O      0.687370000000     0.842500000000     0.388240000000    -0.481897   
O235     O      0.777130000000     0.917440000000     0.361940000000    -0.882266   
O236     O      0.718570000000     0.864210000000     0.298750000000    -0.471242   
O237     O      0.689890000000     0.907920000000     0.334810000000    -0.477989   
O238     O      0.845480000000     0.969720000000     0.420800000000    -0.479826   
O239     O      0.720230000000     0.915070000000     0.425220000000    -0.488538   
O240     O      0.788980000000     0.848460000000     0.316360000000    -0.486887   
O241     O      0.845190000000     0.894110000000     0.386520000000    -0.495029   
O242     O      0.927100000000     0.816220000000     0.064360000000    -0.503611   
O243     O      0.006810000000     0.762650000000     0.173930000000    -0.475546   
O244     O      0.876380000000     0.734310000000     0.052720000000    -0.478798   
O245     O      0.874080000000     0.770890000000     0.136570000000    -0.496007   
O246     O      0.000890000000     0.805450000000     0.047120000000    -0.482132   
O247     O      0.934440000000     0.674600000000     0.161960000000    -0.494748   
O248     O      0.945100000000     0.752350000000     0.111950000000    -0.884367   
O249     O      0.953740000000     0.681840000000     0.071730000000    -0.482092   
O250     O      0.875460000000     0.659200000000     0.089300000000    -0.501446   
O251     O      0.951860000000     0.830050000000     0.153300000000    -0.491262   
O252     O      0.879220000000     0.699530000000     0.172710000000    -0.501697   
O253     O      0.032990000000     0.765610000000     0.084820000000    -0.480622   
O254     O      0.033620000000     0.833330000000     0.134680000000    -0.481022   
O255     O      0.976840000000     0.720650000000     0.477940000000    -0.0802289  
O256     O      0.998360000000     0.766930000000     0.412570000000    -0.0932558  
O257     O      0.644320000000     0.798750000000     0.131560000000    -0.0907377  
O258     O      0.628060000000     0.860280000000     0.104920000000    -0.176249   
O259     O      0.992800000000     0.633480000000     0.239810000000    -0.091343   
O260     O      0.989860000000     0.706080000000     0.252730000000    -0.0776161  
O261     O      0.922170000000     0.988810000000     0.978150000000    -0.0886479  
O262     O      0.975290000000     0.068160000000     0.450390000000    -0.0921213  
O263     O      0.749680000000     0.680760000000     0.995400000000    -0.092899   
O264     O      0.781580000000     0.720120000000     0.063160000000    -0.0986523  
O265     O      0.743320000000     0.736440000000     0.257790000000    -0.092554   
O266     O      0.727880000000     0.799350000000     0.235800000000    -0.0820594  
O267     O      0.849250000000     0.007690000000     0.836480000000    -0.498027   
O268     O      0.766620000000     0.839540000000     0.905710000000    -0.483865   
O269     O      0.771800000000     0.988070000000     0.818840000000    -0.492088   
O270     O      0.794450000000     0.999640000000     0.908690000000    -0.497468   
O271     O      0.842390000000     0.928980000000     0.801760000000    -0.496138   
O272     O      0.687370000000     0.842500000000     0.888250000000    -0.481955   
O273     O      0.777130000000     0.917440000000     0.861940000000    -0.882265   
O274     O      0.718570000000     0.864210000000     0.798750000000    -0.471243   
O275     O      0.689890000000     0.907920000000     0.834810000000    -0.477999   
O276     O      0.845480000000     0.969720000000     0.920800000000    -0.479825   
O277     O      0.720230000000     0.915070000000     0.925220000000    -0.488592   
O278     O      0.788980000000     0.848460000000     0.816360000000    -0.486879   
O279     O      0.845190000000     0.894110000000     0.886520000000    -0.495033   
O280     O      0.927100000000     0.816220000000     0.564360000000    -0.503548   
O281     O      0.006810000000     0.762650000000     0.673940000000    -0.475423   
O282     O      0.876380000000     0.734310000000     0.552720000000    -0.478792   
O283     O      0.874080000000     0.770890000000     0.636570000000    -0.496028   
O284     O      0.000890000000     0.805450000000     0.547120000000    -0.482029   
O285     O      0.934440000000     0.674600000000     0.661960000000    -0.494742   
O286     O      0.945100000000     0.752350000000     0.611950000000    -0.884388   
O287     O      0.953740000000     0.681840000000     0.571730000000    -0.482108   
O288     O      0.875460000000     0.659200000000     0.589300000000    -0.501519   
O289     O      0.951860000000     0.830050000000     0.653300000000    -0.491373   
O290     O      0.879220000000     0.699530000000     0.672710000000    -0.501699   
O291     O      0.032990000000     0.765610000000     0.584820000000    -0.4806     
O292     O      0.033620000000     0.833330000000     0.634680000000    -0.481071   
O293     O      0.976840000000     0.720650000000     0.977940000000    -0.0802586  
O294     O      0.998360000000     0.766930000000     0.912570000000    -0.0932605  
O295     O      0.644320000000     0.798750000000     0.631560000000    -0.0907433  
O296     O      0.628060000000     0.860280000000     0.604920000000    -0.176248   
O297     O      0.992800000000     0.633480000000     0.739810000000    -0.0913457  
O298     O      0.989860000000     0.706080000000     0.752730000000    -0.0776132  
O299     O      0.922170000000     0.988810000000     0.478150000000    -0.0886383  
O300     O      0.975290000000     0.068160000000     0.950390000000    -0.0921324  
O301     O      0.749680000000     0.680760000000     0.495400000000    -0.0928733  
O302     O      0.781580000000     0.720120000000     0.563160000000    -0.0986599  
O303     O      0.743320000000     0.736440000000     0.757790000000    -0.0925544  
O304     O      0.727880000000     0.799350000000     0.735800000000    -0.082063   


