data_structure

_audit_creation_method RASPA-1.0
_audit_creation_date 2023-6-4
_audit_author_name 'Poobodin Mano'

_cell_length_a    28.9561
_cell_length_b    28.7785
_cell_length_c    30.9342
_cell_angle_alpha 90
_cell_angle_beta  90
_cell_angle_gamma 120
_cell_volume      22324.3

_symmetry_cell_setting          triclinic
_symmetry_space_group_name_Hall 'P 1'
_symmetry_space_group_name_H-M  'P 1'
_symmetry_Int_Tables_number     1

_symmetry_equiv_pos_as_xyz 'x,y,z'

loop_
_atom_site_label
_atom_site_type_symbol
_atom_site_fract_x
_atom_site_fract_y
_atom_site_fract_z
_atom_site_charge
C1       C      0.354540000000     0.384620000000     0.273780000000     0.529689   
C2       C      0.347670000000     0.378520000000     0.389890000000     0.531159   
C3       C      0.214800000000     0.392270000000     0.389140000000     0.529563   
C4       C      0.354000000000     0.523760000000     0.271840000000     0.530349   
C5       C      0.360510000000     0.525280000000     0.388660000000     0.528865   
C6       C      0.215040000000     0.382620000000     0.272990000000     0.529256   
C7       C      0.430060000000     0.313370000000     0.139710000000     0.529846   
C8       C      0.423350000000     0.307320000000     0.023520000000     0.529245   
C9       C      0.434930000000     0.172450000000     0.022480000000     0.53048    
C10      C      0.568900000000     0.309060000000     0.138760000000     0.529842   
C11      C      0.569640000000     0.320600000000     0.024060000000     0.530371   
C12      C      0.426570000000     0.171340000000     0.138020000000     0.529643   
C13      C      0.155970000000     0.323670000000     0.937120000000     0.0377277  
C14      C      0.667050000000     0.410350000000     0.442770000000     0.0240983  
C15      C      0.121080000000     0.306850000000     0.972220000000     0.0361016  
C16      C      0.629670000000     0.393060000000     0.476590000000     0.071655   
C17      C      0.156810000000     0.393460000000     0.225000000000     0.0368462  
C18      C      0.165740000000     0.316620000000     0.220020000000     0.0236431  
C19      C      0.121580000000     0.375250000000     0.190010000000     0.0353731  
C20      C      0.628800000000     0.296840000000     0.186080000000     0.0715854  
C21      C      0.361780000000     0.619510000000     0.191010000000     0.0358648  
C22      C      0.438960000000     0.112220000000     0.183870000000     0.0261625  
C23      C      0.343230000000     0.580920000000     0.223580000000     0.0354767  
C24      C      0.422070000000     0.075510000000     0.218330000000     0.0702503  
C25      C      0.351450000000     0.585430000000     0.435760000000     0.0370877  
C26      C      0.426380000000     0.574020000000     0.941810000000     0.0240164  
C27      C      0.369770000000     0.120840000000     0.470680000000     0.0361513  
C28      C      0.446750000000     0.111960000000     0.975280000000     0.07179    
C29      C      0.431900000000     0.376370000000     0.476380000000     0.0373157  
C30      C      0.356650000000     0.289670000000     0.971210000000     0.024127   
C31      C      0.413170000000     0.393020000000     0.441520000000     0.0365664  
C32      C      0.335900000000     0.306800000000     0.937830000000     0.071957   
C33      C      0.442850000000     0.377830000000     0.193240000000     0.0359791  
C34      C      0.359220000000     0.299100000000     0.186590000000     0.0258776  
C35      C      0.422670000000     0.395900000000     0.225950000000     0.035191   
C36      C      0.339380000000     0.315420000000     0.221320000000     0.0700552  
C37      C      0.354540000000     0.384620000000     0.773780000000     0.529688   
C38      C      0.347670000000     0.378520000000     0.889890000000     0.53108    
C39      C      0.214800000000     0.392270000000     0.889140000000     0.529563   
C40      C      0.354000000000     0.523760000000     0.771830000000     0.53025    
C41      C      0.360510000000     0.525280000000     0.888660000000     0.528862   
C42      C      0.215040000000     0.382620000000     0.772990000000     0.529175   
C43      C      0.430060000000     0.313370000000     0.639710000000     0.529846   
C44      C      0.423350000000     0.307320000000     0.523520000000     0.529206   
C45      C      0.434930000000     0.172450000000     0.522480000000     0.530512   
C46      C      0.568900000000     0.309060000000     0.638760000000     0.5298     
C47      C      0.569640000000     0.320600000000     0.524060000000     0.530482   
C48      C      0.426570000000     0.171340000000     0.638020000000     0.529637   
C49      C      0.155970000000     0.323670000000     0.437120000000     0.0377266  
C50      C      0.667050000000     0.410350000000     0.942770000000     0.0241041  
C51      C      0.121080000000     0.306850000000     0.472220000000     0.036092   
C52      C      0.629670000000     0.393060000000     0.976590000000     0.0716502  
C53      C      0.156810000000     0.393460000000     0.725000000000     0.0368415  
C54      C      0.165740000000     0.316620000000     0.720020000000     0.0236475  
C55      C      0.121580000000     0.375250000000     0.690010000000     0.0353765  
C56      C      0.628800000000     0.296840000000     0.686080000000     0.0715849  
C57      C      0.361780000000     0.619510000000     0.691010000000     0.0358634  
C58      C      0.438960000000     0.112220000000     0.683870000000     0.026162   
C59      C      0.343230000000     0.580920000000     0.723580000000     0.0354869  
C60      C      0.422070000000     0.075510000000     0.718330000000     0.070258   
C61      C      0.351450000000     0.585430000000     0.935760000000     0.0370901  
C62      C      0.426380000000     0.574020000000     0.441810000000     0.0240127  
C63      C      0.369770000000     0.120840000000     0.970680000000     0.0361552  
C64      C      0.446750000000     0.111960000000     0.475280000000     0.0717915  
C65      C      0.431900000000     0.376370000000     0.976380000000     0.0373249  
C66      C      0.356650000000     0.289670000000     0.471210000000     0.0241239  
C67      C      0.413170000000     0.393020000000     0.941520000000     0.0365694  
C68      C      0.335900000000     0.306800000000     0.437830000000     0.0719579  
C69      C      0.442850000000     0.377830000000     0.693240000000     0.0359786  
C70      C      0.359220000000     0.299100000000     0.686600000000     0.0258613  
C71      C      0.422670000000     0.395900000000     0.725950000000     0.0351922  
C72      C      0.339380000000     0.315420000000     0.721320000000     0.0700586  
C73      C      0.354540000000     0.884620000000     0.273780000000     0.529628   
C74      C      0.347670000000     0.878520000000     0.389890000000     0.531147   
C75      C      0.214800000000     0.892270000000     0.389140000000     0.529557   
C76      C      0.354000000000     0.023760000000     0.271840000000     0.530404   
C77      C      0.360510000000     0.025280000000     0.388660000000     0.528907   
C78      C      0.215040000000     0.882630000000     0.272990000000     0.529234   
C79      C      0.430060000000     0.813370000000     0.139710000000     0.529845   
C80      C      0.423350000000     0.807330000000     0.023520000000     0.529234   
C81      C      0.434920000000     0.672450000000     0.022480000000     0.530486   
C82      C      0.568900000000     0.809060000000     0.138760000000     0.529844   
C83      C      0.569640000000     0.820590000000     0.024060000000     0.530373   
C84      C      0.426570000000     0.671340000000     0.138020000000     0.529806   
C85      C      0.155970000000     0.823670000000     0.937120000000     0.037733   
C86      C      0.667050000000     0.910350000000     0.442770000000     0.024085   
C87      C      0.121080000000     0.806850000000     0.972220000000     0.0360881  
C88      C      0.629670000000     0.893060000000     0.476590000000     0.0716704  
C89      C      0.156810000000     0.893460000000     0.225000000000     0.0368342  
C90      C      0.165740000000     0.816620000000     0.220020000000     0.0236652  
C91      C      0.121580000000     0.875250000000     0.190010000000     0.0353765  
C92      C      0.628800000000     0.796840000000     0.186080000000     0.0715822  
C93      C      0.361780000000     0.119510000000     0.191010000000     0.0358567  
C94      C      0.438960000000     0.612220000000     0.183870000000     0.0261696  
C95      C      0.343230000000     0.080920000000     0.223580000000     0.0354847  
C96      C      0.422070000000     0.575510000000     0.218330000000     0.0702448  
C97      C      0.351460000000     0.085430000000     0.435760000000     0.0371889  
C98      C      0.426380000000     0.074020000000     0.941810000000     0.0240314  
C99      C      0.369770000000     0.620830000000     0.470680000000     0.0362214  
C100     C      0.446750000000     0.611960000000     0.975280000000     0.0718072  
C101     C      0.431900000000     0.876370000000     0.476380000000     0.0372797  
C102     C      0.356650000000     0.789670000000     0.971210000000     0.0241734  
C103     C      0.413170000000     0.893020000000     0.441520000000     0.0365794  
C104     C      0.335900000000     0.806800000000     0.937830000000     0.0719392  
C105     C      0.442850000000     0.877830000000     0.193240000000     0.035972   
C106     C      0.359220000000     0.799100000000     0.186590000000     0.0258553  
C107     C      0.422670000000     0.895900000000     0.225950000000     0.0351708  
C108     C      0.339380000000     0.815420000000     0.221320000000     0.070084   
C109     C      0.354540000000     0.884620000000     0.773780000000     0.529626   
C110     C      0.347670000000     0.878520000000     0.889890000000     0.531068   
C111     C      0.214800000000     0.892270000000     0.889140000000     0.529556   
C112     C      0.354000000000     0.023760000000     0.771830000000     0.530305   
C113     C      0.360510000000     0.025280000000     0.888660000000     0.528905   
C114     C      0.215040000000     0.882630000000     0.772990000000     0.529153   
C115     C      0.430060000000     0.813370000000     0.639710000000     0.529845   
C116     C      0.423350000000     0.807330000000     0.523520000000     0.529195   
C117     C      0.434920000000     0.672450000000     0.522480000000     0.530518   
C118     C      0.568900000000     0.809060000000     0.638760000000     0.529803   
C119     C      0.569640000000     0.820590000000     0.524060000000     0.530484   
C120     C      0.426570000000     0.671340000000     0.638020000000     0.529801   
C121     C      0.155970000000     0.823670000000     0.437120000000     0.0377319  
C122     C      0.667050000000     0.910350000000     0.942770000000     0.0240907  
C123     C      0.121080000000     0.806850000000     0.472220000000     0.0360785  
C124     C      0.629670000000     0.893060000000     0.976590000000     0.0716656  
C125     C      0.156810000000     0.893460000000     0.725000000000     0.0368295  
C126     C      0.165740000000     0.816620000000     0.720020000000     0.0236696  
C127     C      0.121580000000     0.875250000000     0.690010000000     0.0353799  
C128     C      0.628800000000     0.796840000000     0.686080000000     0.0715818  
C129     C      0.361780000000     0.119510000000     0.691010000000     0.0358553  
C130     C      0.438960000000     0.612220000000     0.683870000000     0.0261691  
C131     C      0.343230000000     0.080920000000     0.723580000000     0.0354948  
C132     C      0.422070000000     0.575510000000     0.718330000000     0.0702525  
C133     C      0.351460000000     0.085430000000     0.935760000000     0.0371914  
C134     C      0.426380000000     0.074020000000     0.441810000000     0.0240276  
C135     C      0.369770000000     0.620830000000     0.970680000000     0.0362252  
C136     C      0.446750000000     0.611960000000     0.475280000000     0.0718087  
C137     C      0.431900000000     0.876370000000     0.976380000000     0.0372888  
C138     C      0.356650000000     0.789670000000     0.471210000000     0.0241703  
C139     C      0.413170000000     0.893020000000     0.941520000000     0.0365824  
C140     C      0.335900000000     0.806800000000     0.437830000000     0.0719402  
C141     C      0.442850000000     0.877830000000     0.693240000000     0.0359716  
C142     C      0.359220000000     0.799100000000     0.686600000000     0.025839   
C143     C      0.422670000000     0.895900000000     0.725950000000     0.035172   
C144     C      0.339380000000     0.815420000000     0.721320000000     0.0700874  
C145     C      0.854540000000     0.384620000000     0.273780000000     0.529749   
C146     C      0.847670000000     0.378520000000     0.389890000000     0.531189   
C147     C      0.714800000000     0.392270000000     0.389140000000     0.529637   
C148     C      0.854000000000     0.523760000000     0.271840000000     0.530355   
C149     C      0.860510000000     0.525280000000     0.388660000000     0.528918   
C150     C      0.715040000000     0.382620000000     0.272990000000     0.529331   
C151     C      0.930060000000     0.313370000000     0.139710000000     0.529116   
C152     C      0.923350000000     0.307320000000     0.023520000000     0.528817   
C153     C      0.934920000000     0.172450000000     0.022480000000     0.530129   
C154     C      0.068900000000     0.309060000000     0.138760000000     0.529015   
C155     C      0.069640000000     0.320600000000     0.024060000000     0.529533   
C156     C      0.926570000000     0.171340000000     0.138020000000     0.529355   
C157     C      0.655970000000     0.323670000000     0.937120000000     0.0378626  
C158     C      0.167050000000     0.410350000000     0.442770000000     0.0238982  
C159     C      0.621080000000     0.306850000000     0.972220000000     0.0363541  
C160     C      0.129670000000     0.393060000000     0.476590000000     0.0716538  
C161     C      0.656810000000     0.393460000000     0.225000000000     0.0370269  
C162     C      0.665740000000     0.316620000000     0.220020000000     0.0238526  
C163     C      0.621580000000     0.375250000000     0.190010000000     0.0356158  
C164     C      0.128790000000     0.296840000000     0.186080000000     0.0716116  
C165     C      0.861780000000     0.619510000000     0.191010000000     0.0359794  
C166     C      0.938960000000     0.112220000000     0.183870000000     0.0264438  
C167     C      0.843230000000     0.580920000000     0.223580000000     0.0355594  
C168     C      0.922070000000     0.075510000000     0.218330000000     0.0701833  
C169     C      0.851460000000     0.585430000000     0.435760000000     0.0371379  
C170     C      0.926380000000     0.574020000000     0.941810000000     0.0231931  
C171     C      0.869770000000     0.120840000000     0.470680000000     0.0363629  
C172     C      0.946750000000     0.111960000000     0.975280000000     0.0753878  
C173     C      0.931900000000     0.376370000000     0.476380000000     0.0375056  
C174     C      0.856650000000     0.289670000000     0.971210000000     0.0242322  
C175     C      0.913170000000     0.393020000000     0.441520000000     0.0367854  
C176     C      0.835910000000     0.306800000000     0.937830000000     0.0719612  
C177     C      0.942850000000     0.377830000000     0.193240000000     0.0361251  
C178     C      0.859220000000     0.299100000000     0.186590000000     0.025963   
C179     C      0.922670000000     0.395900000000     0.225950000000     0.035393   
C180     C      0.839380000000     0.315420000000     0.221320000000     0.0700653  
C181     C      0.854540000000     0.384620000000     0.773780000000     0.529748   
C182     C      0.847670000000     0.378520000000     0.889890000000     0.53111    
C183     C      0.714800000000     0.392270000000     0.889140000000     0.529637   
C184     C      0.854000000000     0.523760000000     0.771830000000     0.530256   
C185     C      0.860510000000     0.525280000000     0.888660000000     0.528915   
C186     C      0.715040000000     0.382620000000     0.772990000000     0.52925    
C187     C      0.930060000000     0.313370000000     0.639710000000     0.529116   
C188     C      0.923350000000     0.307320000000     0.523520000000     0.528778   
C189     C      0.934920000000     0.172450000000     0.522480000000     0.530161   
C190     C      0.068900000000     0.309060000000     0.638760000000     0.528974   
C191     C      0.069640000000     0.320600000000     0.524060000000     0.529644   
C192     C      0.926570000000     0.171340000000     0.638020000000     0.529349   
C193     C      0.655970000000     0.323670000000     0.437120000000     0.0378615  
C194     C      0.167050000000     0.410350000000     0.942770000000     0.0239039  
C195     C      0.621080000000     0.306850000000     0.472220000000     0.0363446  
C196     C      0.129670000000     0.393060000000     0.976590000000     0.071649   
C197     C      0.656810000000     0.393460000000     0.725000000000     0.0370223  
C198     C      0.665740000000     0.316620000000     0.720020000000     0.023857   
C199     C      0.621580000000     0.375250000000     0.690010000000     0.0356192  
C200     C      0.128790000000     0.296840000000     0.686080000000     0.0716112  
C201     C      0.861780000000     0.619510000000     0.691010000000     0.0359781  
C202     C      0.938960000000     0.112220000000     0.683870000000     0.0264433  
C203     C      0.843230000000     0.580920000000     0.723580000000     0.0355695  
C204     C      0.922070000000     0.075510000000     0.718330000000     0.070191   
C205     C      0.851460000000     0.585430000000     0.935760000000     0.0371403  
C206     C      0.926380000000     0.574020000000     0.441810000000     0.0231892  
C207     C      0.869770000000     0.120840000000     0.970680000000     0.0363667  
C208     C      0.946750000000     0.111960000000     0.475280000000     0.0753898  
C209     C      0.931900000000     0.376370000000     0.976380000000     0.0375147  
C210     C      0.856650000000     0.289670000000     0.471210000000     0.0242292  
C211     C      0.913170000000     0.393020000000     0.941520000000     0.0367883  
C212     C      0.835910000000     0.306800000000     0.437830000000     0.0719622  
C213     C      0.942850000000     0.377830000000     0.693240000000     0.0361247  
C214     C      0.859220000000     0.299100000000     0.686600000000     0.0259467  
C215     C      0.922670000000     0.395900000000     0.725950000000     0.0353943  
C216     C      0.839380000000     0.315420000000     0.721320000000     0.0700687  
C217     C      0.854540000000     0.884620000000     0.273780000000     0.529684   
C218     C      0.847670000000     0.878520000000     0.389890000000     0.531232   
C219     C      0.714800000000     0.892270000000     0.389140000000     0.52963    
C220     C      0.854000000000     0.023760000000     0.271840000000     0.530411   
C221     C      0.860510000000     0.025280000000     0.388660000000     0.528956   
C222     C      0.715040000000     0.882630000000     0.272990000000     0.529308   
C223     C      0.930070000000     0.813370000000     0.139710000000     0.529252   
C224     C      0.923350000000     0.807330000000     0.023520000000     0.528792   
C225     C      0.934930000000     0.672450000000     0.022480000000     0.530124   
C226     C      0.068900000000     0.809060000000     0.138760000000     0.529062   
C227     C      0.069640000000     0.820590000000     0.024060000000     0.529533   
C228     C      0.926570000000     0.671340000000     0.138020000000     0.529352   
C229     C      0.655970000000     0.823670000000     0.937120000000     0.0378678  
C230     C      0.167050000000     0.910350000000     0.442770000000     0.0238943  
C231     C      0.621080000000     0.806850000000     0.972220000000     0.0363403  
C232     C      0.129670000000     0.893060000000     0.476590000000     0.0716594  
C233     C      0.656810000000     0.893460000000     0.225000000000     0.0370124  
C234     C      0.665740000000     0.816620000000     0.220020000000     0.0238625  
C235     C      0.621580000000     0.875250000000     0.190010000000     0.0356203  
C236     C      0.128800000000     0.796840000000     0.186080000000     0.0715687  
C237     C      0.861780000000     0.119510000000     0.191010000000     0.0359726  
C238     C      0.938960000000     0.612220000000     0.183870000000     0.0264434  
C239     C      0.843230000000     0.080920000000     0.223580000000     0.0355803  
C240     C      0.922070000000     0.575510000000     0.218330000000     0.0701802  
C241     C      0.851460000000     0.085430000000     0.435760000000     0.0371743  
C242     C      0.926380000000     0.074020000000     0.941810000000     0.0231975  
C243     C      0.869770000000     0.620830000000     0.470680000000     0.0364193  
C244     C      0.946750000000     0.611960000000     0.975280000000     0.0753827  
C245     C      0.931900000000     0.876370000000     0.476380000000     0.0374814  
C246     C      0.856650000000     0.789670000000     0.971210000000     0.0242843  
C247     C      0.913170000000     0.893020000000     0.441520000000     0.0367725  
C248     C      0.835900000000     0.806800000000     0.937830000000     0.0719595  
C249     C      0.942850000000     0.877830000000     0.193240000000     0.0361475  
C250     C      0.859220000000     0.799100000000     0.186590000000     0.0259646  
C251     C      0.922680000000     0.895900000000     0.225950000000     0.0353155  
C252     C      0.839370000000     0.815420000000     0.221320000000     0.0700771  
C253     C      0.854540000000     0.884620000000     0.773780000000     0.529682   
C254     C      0.847670000000     0.878520000000     0.889890000000     0.531153   
C255     C      0.714800000000     0.892270000000     0.889140000000     0.52963    
C256     C      0.854000000000     0.023760000000     0.771830000000     0.530311   
C257     C      0.860510000000     0.025280000000     0.888660000000     0.528954   
C258     C      0.715040000000     0.882630000000     0.772990000000     0.529227   
C259     C      0.930070000000     0.813370000000     0.639710000000     0.529252   
C260     C      0.923350000000     0.807330000000     0.523520000000     0.528753   
C261     C      0.934930000000     0.672450000000     0.522480000000     0.530156   
C262     C      0.068900000000     0.809060000000     0.638760000000     0.529021   
C263     C      0.069640000000     0.820590000000     0.524060000000     0.529644   
C264     C      0.926570000000     0.671340000000     0.638020000000     0.529346   
C265     C      0.655970000000     0.823670000000     0.437120000000     0.0378667  
C266     C      0.167050000000     0.910350000000     0.942770000000     0.0239001  
C267     C      0.621080000000     0.806850000000     0.472220000000     0.0363309  
C268     C      0.129670000000     0.893060000000     0.976590000000     0.0716546  
C269     C      0.656810000000     0.893460000000     0.725000000000     0.0370078  
C270     C      0.665740000000     0.816620000000     0.720020000000     0.023867   
C271     C      0.621580000000     0.875250000000     0.690010000000     0.0356237  
C272     C      0.128800000000     0.796840000000     0.686080000000     0.0715683  
C273     C      0.861780000000     0.119510000000     0.691010000000     0.0359713  
C274     C      0.938960000000     0.612220000000     0.683870000000     0.0264429  
C275     C      0.843230000000     0.080920000000     0.723580000000     0.0355904  
C276     C      0.922070000000     0.575510000000     0.718330000000     0.0701879  
C277     C      0.851460000000     0.085430000000     0.935760000000     0.0371767  
C278     C      0.926380000000     0.074020000000     0.441810000000     0.0231937  
C279     C      0.869770000000     0.620830000000     0.970680000000     0.0364231  
C280     C      0.946750000000     0.611960000000     0.475280000000     0.0753846  
C281     C      0.931900000000     0.876370000000     0.976380000000     0.0374906  
C282     C      0.856650000000     0.789670000000     0.471210000000     0.0242812  
C283     C      0.913170000000     0.893020000000     0.941520000000     0.0367754  
C284     C      0.835900000000     0.806800000000     0.437830000000     0.0719605  
C285     C      0.942850000000     0.877830000000     0.693240000000     0.036147   
C286     C      0.859220000000     0.799100000000     0.686600000000     0.0259484  
C287     C      0.922680000000     0.895900000000     0.725950000000     0.0353167  
C288     C      0.839370000000     0.815420000000     0.721320000000     0.0700805  
Fe1      Fe     0.272610000000     0.364590000000     0.332200000000     1.36542    
Fe2      Fe     0.276440000000     0.467200000000     0.330330000000     1.35568    
Fe3      Fe     0.374450000000     0.462950000000     0.331320000000     1.36249    
Fe4      Fe     0.408590000000     0.230800000000     0.080760000000     1.36317    
Fe5      Fe     0.509830000000     0.233660000000     0.080250000000     1.36583    
Fe6      Fe     0.507330000000     0.333050000000     0.081940000000     1.35682    
Fe7      Fe     0.272610000000     0.364590000000     0.832200000000     1.36541    
Fe8      Fe     0.276440000000     0.467200000000     0.830330000000     1.35567    
Fe9      Fe     0.374450000000     0.462950000000     0.831320000000     1.36247    
Fe10     Fe     0.408590000000     0.230800000000     0.580760000000     1.36317    
Fe11     Fe     0.509830000000     0.233660000000     0.580250000000     1.3657     
Fe12     Fe     0.507330000000     0.333050000000     0.581940000000     1.35682    
Fe13     Fe     0.272610000000     0.864590000000     0.332200000000     1.36538    
Fe14     Fe     0.276440000000     0.967210000000     0.330330000000     1.35553    
Fe15     Fe     0.374450000000     0.962950000000     0.331320000000     1.36235    
Fe16     Fe     0.408590000000     0.730800000000     0.080760000000     1.36319    
Fe17     Fe     0.509830000000     0.733660000000     0.080250000000     1.36582    
Fe18     Fe     0.507330000000     0.833050000000     0.081940000000     1.35681    
Fe19     Fe     0.272610000000     0.864590000000     0.832200000000     1.36537    
Fe20     Fe     0.276440000000     0.967210000000     0.830330000000     1.35552    
Fe21     Fe     0.374450000000     0.962950000000     0.831320000000     1.36232    
Fe22     Fe     0.408590000000     0.730800000000     0.580760000000     1.36319    
Fe23     Fe     0.509830000000     0.733660000000     0.580250000000     1.36569    
Fe24     Fe     0.507330000000     0.833050000000     0.581940000000     1.35681    
Fe25     Fe     0.772610000000     0.364590000000     0.332200000000     1.36552    
Fe26     Fe     0.776440000000     0.467200000000     0.330330000000     1.35579    
Fe27     Fe     0.874450000000     0.462950000000     0.331320000000     1.36274    
Fe28     Fe     0.908590000000     0.230800000000     0.080760000000     1.36245    
Fe29     Fe     0.009830000000     0.233660000000     0.080250000000     1.35899    
Fe30     Fe     0.007330000000     0.333050000000     0.081940000000     1.34989    
Fe31     Fe     0.772610000000     0.364590000000     0.832200000000     1.3655     
Fe32     Fe     0.776440000000     0.467200000000     0.830330000000     1.35578    
Fe33     Fe     0.874450000000     0.462950000000     0.831320000000     1.36271    
Fe34     Fe     0.908590000000     0.230800000000     0.580760000000     1.36245    
Fe35     Fe     0.009830000000     0.233660000000     0.580250000000     1.35886    
Fe36     Fe     0.007330000000     0.333050000000     0.581940000000     1.34988    
Fe37     Fe     0.772610000000     0.864590000000     0.332200000000     1.36548    
Fe38     Fe     0.776440000000     0.967210000000     0.330330000000     1.35564    
Fe39     Fe     0.874450000000     0.962950000000     0.331320000000     1.3626     
Fe40     Fe     0.908590000000     0.730800000000     0.080760000000     1.36232    
Fe41     Fe     0.009830000000     0.733660000000     0.080250000000     1.35901    
Fe42     Fe     0.007330000000     0.833050000000     0.081940000000     1.34978    
Fe43     Fe     0.772610000000     0.864590000000     0.832200000000     1.36546    
Fe44     Fe     0.776440000000     0.967210000000     0.830330000000     1.35563    
Fe45     Fe     0.874450000000     0.962950000000     0.831320000000     1.36257    
Fe46     Fe     0.908590000000     0.730800000000     0.580760000000     1.36232    
Fe47     Fe     0.009830000000     0.733660000000     0.580250000000     1.35888    
Fe48     Fe     0.007330000000     0.833050000000     0.581940000000     1.34977    
H1       H      0.103970000000     0.265430000000     0.982580000000     0.0381482  
H2       H      0.165170000000     0.294980000000     0.922510000000     0.0370519  
H3       H      0.685520000000     0.451830000000     0.432070000000     0.0399249  
H4       H      0.605010000000     0.399860000000     0.179480000000     0.0356631  
H5       H      0.166870000000     0.431750000000     0.239400000000     0.0347694  
H6       H      0.183040000000     0.292850000000     0.231110000000     0.041737   
H7       H      0.305050000000     0.570050000000     0.238150000000     0.0324655  
H8       H      0.336800000000     0.635940000000     0.181430000000     0.0342507  
H9       H      0.476760000000     0.123670000000     0.168140000000     0.0418015  
H10      H      0.345900000000     0.138290000000     0.980940000000     0.0355762  
H11      H      0.313770000000     0.576110000000     0.421060000000     0.0351503  
H12      H      0.449030000000     0.555230000000     0.431330000000     0.0396423  
H13      H      0.437030000000     0.434360000000     0.430900000000     0.0358096  
H14      H      0.469830000000     0.405010000000     0.490700000000     0.0365908  
H15      H      0.333970000000     0.248220000000     0.982030000000     0.0393238  
H16      H      0.449640000000     0.434540000000     0.240380000000     0.0335287  
H17      H      0.483960000000     0.403600000000     0.183380000000     0.0337352  
H18      H      0.333300000000     0.260760000000     0.171080000000     0.0400303  
H19      H      0.103970000000     0.265430000000     0.482580000000     0.0381417  
H20      H      0.165170000000     0.294980000000     0.422510000000     0.0370504  
H21      H      0.685520000000     0.451830000000     0.932070000000     0.0399249  
H22      H      0.605010000000     0.399860000000     0.679480000000     0.0356658  
H23      H      0.166870000000     0.431750000000     0.739400000000     0.0347683  
H24      H      0.183040000000     0.292850000000     0.731110000000     0.0417341  
H25      H      0.305050000000     0.570050000000     0.738150000000     0.0324635  
H26      H      0.336800000000     0.635940000000     0.681430000000     0.0342533  
H27      H      0.476760000000     0.123670000000     0.668140000000     0.0418047  
H28      H      0.345900000000     0.138290000000     0.480940000000     0.0355658  
H29      H      0.313770000000     0.576110000000     0.921060000000     0.0351519  
H30      H      0.449030000000     0.555230000000     0.931330000000     0.0396426  
H31      H      0.437030000000     0.434360000000     0.930900000000     0.0358088  
H32      H      0.469830000000     0.405010000000     0.990700000000     0.0366019  
H33      H      0.333970000000     0.248220000000     0.482030000000     0.0393108  
H34      H      0.449640000000     0.434540000000     0.740380000000     0.0335284  
H35      H      0.483960000000     0.403600000000     0.683380000000     0.0337375  
H36      H      0.333300000000     0.260760000000     0.671080000000     0.0400406  
H37      H      0.103970000000     0.765430000000     0.982580000000     0.0381491  
H38      H      0.165170000000     0.794980000000     0.922510000000     0.0370502  
H39      H      0.685530000000     0.951830000000     0.432070000000     0.0399272  
H40      H      0.605010000000     0.899860000000     0.179480000000     0.0356601  
H41      H      0.166870000000     0.931750000000     0.239400000000     0.0347639  
H42      H      0.183040000000     0.792850000000     0.231110000000     0.0417334  
H43      H      0.305050000000     0.070050000000     0.238150000000     0.032464   
H44      H      0.336800000000     0.135940000000     0.181430000000     0.0342547  
H45      H      0.476760000000     0.623670000000     0.168140000000     0.0417914  
H46      H      0.345900000000     0.638300000000     0.980940000000     0.0355573  
H47      H      0.313770000000     0.076110000000     0.421060000000     0.0351238  
H48      H      0.449030000000     0.055230000000     0.431330000000     0.0396434  
H49      H      0.437030000000     0.934360000000     0.430900000000     0.0358039  
H50      H      0.469830000000     0.905010000000     0.490700000000     0.0365965  
H51      H      0.333970000000     0.748220000000     0.982030000000     0.039311   
H52      H      0.449640000000     0.934540000000     0.240380000000     0.0335284  
H53      H      0.483950000000     0.903590000000     0.183380000000     0.0337366  
H54      H      0.333300000000     0.760770000000     0.171080000000     0.0400348  
H55      H      0.103970000000     0.765430000000     0.482580000000     0.0381426  
H56      H      0.165170000000     0.794980000000     0.422510000000     0.0370486  
H57      H      0.685530000000     0.951830000000     0.932070000000     0.0399271  
H58      H      0.605010000000     0.899860000000     0.679480000000     0.0356628  
H59      H      0.166870000000     0.931750000000     0.739400000000     0.0347627  
H60      H      0.183040000000     0.792850000000     0.731110000000     0.0417304  
H61      H      0.305050000000     0.070050000000     0.738150000000     0.032462   
H62      H      0.336800000000     0.135940000000     0.681430000000     0.0342573  
H63      H      0.476760000000     0.623670000000     0.668140000000     0.0417946  
H64      H      0.345900000000     0.638300000000     0.480940000000     0.035547   
H65      H      0.313770000000     0.076110000000     0.921060000000     0.0351254  
H66      H      0.449030000000     0.055230000000     0.931330000000     0.0396437  
H67      H      0.437030000000     0.934360000000     0.930900000000     0.0358031  
H68      H      0.469830000000     0.905010000000     0.990700000000     0.0366075  
H69      H      0.333970000000     0.748220000000     0.482030000000     0.039298   
H70      H      0.449640000000     0.934540000000     0.740380000000     0.033528   
H71      H      0.483950000000     0.903590000000     0.683380000000     0.033739   
H72      H      0.333300000000     0.760770000000     0.671080000000     0.0400451  
H73      H      0.603970000000     0.265430000000     0.982580000000     0.038387   
H74      H      0.665170000000     0.294980000000     0.922510000000     0.0372141  
H75      H      0.185530000000     0.451830000000     0.432070000000     0.0398272  
H76      H      0.105010000000     0.399860000000     0.179480000000     0.0352126  
H77      H      0.666870000000     0.431750000000     0.239400000000     0.034991   
H78      H      0.683040000000     0.292850000000     0.231110000000     0.0418311  
H79      H      0.805050000000     0.570050000000     0.238150000000     0.0325715  
H80      H      0.836800000000     0.635940000000     0.181430000000     0.0343436  
H81      H      0.976760000000     0.123670000000     0.168140000000     0.0424807  
H82      H      0.845900000000     0.138290000000     0.980940000000     0.0356319  
H83      H      0.813770000000     0.576110000000     0.421060000000     0.0352445  
H84      H      0.949030000000     0.555230000000     0.431330000000     0.0406108  
H85      H      0.937030000000     0.434360000000     0.430900000000     0.0362006  
H86      H      0.969830000000     0.405010000000     0.490700000000     0.0373131  
H87      H      0.833970000000     0.248220000000     0.982030000000     0.0393859  
H88      H      0.949640000000     0.434540000000     0.240380000000     0.0338718  
H89      H      0.983950000000     0.403600000000     0.183380000000     0.0344224  
H90      H      0.833300000000     0.260760000000     0.171080000000     0.0400956  
H91      H      0.603970000000     0.265430000000     0.482580000000     0.0383806  
H92      H      0.665170000000     0.294980000000     0.422510000000     0.0372126  
H93      H      0.185530000000     0.451830000000     0.932070000000     0.0398271  
H94      H      0.105010000000     0.399860000000     0.679480000000     0.0352153  
H95      H      0.666870000000     0.431750000000     0.739400000000     0.0349899  
H96      H      0.683040000000     0.292850000000     0.731110000000     0.0418282  
H97      H      0.805050000000     0.570050000000     0.738150000000     0.0325694  
H98      H      0.836800000000     0.635940000000     0.681430000000     0.0343462  
H99      H      0.976760000000     0.123670000000     0.668140000000     0.0424839  
H100     H      0.845900000000     0.138290000000     0.480940000000     0.0356216  
H101     H      0.813770000000     0.576110000000     0.921060000000     0.0352461  
H102     H      0.949030000000     0.555230000000     0.931330000000     0.040611   
H103     H      0.937030000000     0.434360000000     0.930900000000     0.0361998  
H104     H      0.969830000000     0.405010000000     0.990700000000     0.037324   
H105     H      0.833970000000     0.248220000000     0.482030000000     0.039373   
H106     H      0.949640000000     0.434540000000     0.740380000000     0.0338714  
H107     H      0.983950000000     0.403600000000     0.683380000000     0.0344247  
H108     H      0.833300000000     0.260760000000     0.671080000000     0.0401059  
H109     H      0.603970000000     0.765430000000     0.982580000000     0.0383862  
H110     H      0.665170000000     0.794980000000     0.922510000000     0.037213   
H111     H      0.185530000000     0.951830000000     0.432070000000     0.0398214  
H112     H      0.105010000000     0.899860000000     0.179480000000     0.0352063  
H113     H      0.666870000000     0.931750000000     0.239400000000     0.0349857  
H114     H      0.683040000000     0.792850000000     0.231110000000     0.0418312  
H115     H      0.805040000000     0.070050000000     0.238150000000     0.0325644  
H116     H      0.836800000000     0.135940000000     0.181430000000     0.0343458  
H117     H      0.976760000000     0.623670000000     0.168140000000     0.0424792  
H118     H      0.845900000000     0.638300000000     0.980940000000     0.035624   
H119     H      0.813770000000     0.076110000000     0.421060000000     0.0352352  
H120     H      0.949030000000     0.055230000000     0.431330000000     0.0406145  
H121     H      0.937030000000     0.934360000000     0.430900000000     0.0362026  
H122     H      0.969830000000     0.905010000000     0.490700000000     0.0373167  
H123     H      0.833970000000     0.748220000000     0.982030000000     0.0393738  
H124     H      0.949640000000     0.934540000000     0.240380000000     0.0338894  
H125     H      0.983950000000     0.903590000000     0.183380000000     0.0344239  
H126     H      0.833300000000     0.760770000000     0.171080000000     0.0400994  
H127     H      0.603970000000     0.765430000000     0.482580000000     0.0383798  
H128     H      0.665170000000     0.794980000000     0.422510000000     0.0372115  
H129     H      0.185530000000     0.951830000000     0.932070000000     0.0398213  
H130     H      0.105010000000     0.899860000000     0.679480000000     0.035209   
H131     H      0.666870000000     0.931750000000     0.739400000000     0.0349846  
H132     H      0.683040000000     0.792850000000     0.731110000000     0.0418283  
H133     H      0.805040000000     0.070050000000     0.738150000000     0.0325624  
H134     H      0.836800000000     0.135940000000     0.681430000000     0.0343484  
H135     H      0.976760000000     0.623670000000     0.668140000000     0.0424824  
H136     H      0.845900000000     0.638300000000     0.480940000000     0.0356137  
H137     H      0.813770000000     0.076110000000     0.921060000000     0.0352367  
H138     H      0.949030000000     0.055230000000     0.931330000000     0.0406146  
H139     H      0.937030000000     0.934360000000     0.930900000000     0.0362018  
H140     H      0.969830000000     0.905010000000     0.990700000000     0.0373276  
H141     H      0.833970000000     0.748220000000     0.482030000000     0.0393609  
H142     H      0.949640000000     0.934540000000     0.740380000000     0.033889   
H143     H      0.983950000000     0.903590000000     0.683380000000     0.0344263  
H144     H      0.833300000000     0.760770000000     0.671080000000     0.0401096  
N1       N      0.179240000000     0.375450000000     0.422750000000    -0.195509   
N2       N      0.606690000000     0.340700000000     0.991340000000    -0.200379   
N3       N      0.179130000000     0.364320000000     0.239620000000    -0.195621   
N4       N      0.606370000000     0.326550000000     0.171170000000    -0.200575   
N5       N      0.409200000000     0.134530000000     0.170860000000    -0.195735   
N6       N      0.373500000000     0.559680000000     0.238120000000    -0.200089   
N7       N      0.379450000000     0.561640000000     0.421810000000    -0.195587   
N8       N      0.417780000000     0.135240000000     0.989800000000    -0.201035   
N9       N      0.404000000000     0.324580000000     0.990650000000    -0.195585   
N10      N      0.364900000000     0.358970000000     0.422800000000    -0.201118   
N11      N      0.410820000000     0.330030000000     0.173080000000    -0.196213   
N12      N      0.371430000000     0.364820000000     0.240650000000    -0.199875   
N13      N      0.179240000000     0.375450000000     0.922750000000    -0.195508   
N14      N      0.606690000000     0.340700000000     0.491350000000    -0.200449   
N15      N      0.179130000000     0.364320000000     0.739610000000    -0.195569   
N16      N      0.606370000000     0.326550000000     0.671170000000    -0.200563   
N17      N      0.409200000000     0.134530000000     0.670860000000    -0.195732   
N18      N      0.373500000000     0.559680000000     0.738120000000    -0.200129   
N19      N      0.379450000000     0.561640000000     0.921810000000    -0.195586   
N20      N      0.417780000000     0.135240000000     0.489800000000    -0.201057   
N21      N      0.404000000000     0.324580000000     0.490640000000    -0.195556   
N22      N      0.364900000000     0.358970000000     0.922810000000    -0.201068   
N23      N      0.410820000000     0.330030000000     0.673080000000    -0.196206   
N24      N      0.371430000000     0.364820000000     0.740650000000    -0.199875   
N25      N      0.179240000000     0.875450000000     0.422750000000    -0.195509   
N26      N      0.606690000000     0.840700000000     0.991340000000    -0.200377   
N27      N      0.179130000000     0.864320000000     0.239620000000    -0.195619   
N28      N      0.606370000000     0.826550000000     0.171170000000    -0.200576   
N29      N      0.409200000000     0.634530000000     0.170860000000    -0.19577    
N30      N      0.373500000000     0.059680000000     0.238120000000    -0.200098   
N31      N      0.379450000000     0.061640000000     0.421810000000    -0.19562    
N32      N      0.417780000000     0.635240000000     0.989800000000    -0.201052   
N33      N      0.404000000000     0.824570000000     0.990650000000    -0.195649   
N34      N      0.364900000000     0.858970000000     0.422800000000    -0.201115   
N35      N      0.410820000000     0.830030000000     0.173080000000    -0.196208   
N36      N      0.371430000000     0.864810000000     0.240650000000    -0.199842   
N37      N      0.179240000000     0.875450000000     0.922750000000    -0.195508   
N38      N      0.606690000000     0.840700000000     0.491350000000    -0.200447   
N39      N      0.179130000000     0.864320000000     0.739610000000    -0.195567   
N40      N      0.606370000000     0.826550000000     0.671170000000    -0.200564   
N41      N      0.409200000000     0.634530000000     0.670860000000    -0.195767   
N42      N      0.373500000000     0.059680000000     0.738120000000    -0.200138   
N43      N      0.379450000000     0.061640000000     0.921810000000    -0.195619   
N44      N      0.417780000000     0.635240000000     0.489800000000    -0.201074   
N45      N      0.404000000000     0.824570000000     0.490640000000    -0.19562    
N46      N      0.364900000000     0.858970000000     0.922810000000    -0.201066   
N47      N      0.410820000000     0.830030000000     0.673080000000    -0.196201   
N48      N      0.371430000000     0.864810000000     0.740650000000    -0.199842   
N49      N      0.679240000000     0.375450000000     0.422750000000    -0.195474   
N50      N      0.106690000000     0.340700000000     0.991340000000    -0.200368   
N51      N      0.679130000000     0.364320000000     0.239620000000    -0.195593   
N52      N      0.106370000000     0.326550000000     0.171170000000    -0.200599   
N53      N      0.909200000000     0.134530000000     0.170860000000    -0.19556    
N54      N      0.873500000000     0.559680000000     0.238120000000    -0.200018   
N55      N      0.879450000000     0.561640000000     0.421810000000    -0.195369   
N56      N      0.917780000000     0.135240000000     0.989800000000    -0.201267   
N57      N      0.904000000000     0.324580000000     0.990650000000    -0.19538    
N58      N      0.864900000000     0.358970000000     0.422800000000    -0.201076   
N59      N      0.910820000000     0.330030000000     0.173080000000    -0.195971   
N60      N      0.871430000000     0.364820000000     0.240650000000    -0.199847   
N61      N      0.679240000000     0.375450000000     0.922750000000    -0.195474   
N62      N      0.106690000000     0.340700000000     0.491350000000    -0.200438   
N63      N      0.679130000000     0.364320000000     0.739610000000    -0.195541   
N64      N      0.106370000000     0.326550000000     0.671170000000    -0.200586   
N65      N      0.909200000000     0.134530000000     0.670860000000    -0.195556   
N66      N      0.873500000000     0.559680000000     0.738120000000    -0.200057   
N67      N      0.879450000000     0.561640000000     0.921810000000    -0.195368   
N68      N      0.917780000000     0.135240000000     0.489800000000    -0.201289   
N69      N      0.904000000000     0.324580000000     0.490640000000    -0.195351   
N70      N      0.864900000000     0.358970000000     0.922810000000    -0.201027   
N71      N      0.910820000000     0.330030000000     0.673080000000    -0.195964   
N72      N      0.871430000000     0.364820000000     0.740650000000    -0.199847   
N73      N      0.679240000000     0.875450000000     0.422750000000    -0.195473   
N74      N      0.106690000000     0.840700000000     0.991340000000    -0.200364   
N75      N      0.679130000000     0.864320000000     0.239620000000    -0.195589   
N76      N      0.106370000000     0.826550000000     0.171170000000    -0.200589   
N77      N      0.909200000000     0.634530000000     0.170860000000    -0.195562   
N78      N      0.873500000000     0.059680000000     0.238120000000    -0.200028   
N79      N      0.879450000000     0.061640000000     0.421810000000    -0.195379   
N80      N      0.917780000000     0.635240000000     0.989800000000    -0.201281   
N81      N      0.904000000000     0.824570000000     0.990650000000    -0.195443   
N82      N      0.864890000000     0.858970000000     0.422800000000    -0.201106   
N83      N      0.910820000000     0.830030000000     0.173080000000    -0.195952   
N84      N      0.871430000000     0.864810000000     0.240650000000    -0.199791   
N85      N      0.679240000000     0.875450000000     0.922750000000    -0.195473   
N86      N      0.106690000000     0.840700000000     0.491350000000    -0.200434   
N87      N      0.679130000000     0.864320000000     0.739610000000    -0.195537   
N88      N      0.106370000000     0.826550000000     0.671170000000    -0.200576   
N89      N      0.909200000000     0.634530000000     0.670860000000    -0.195558   
N90      N      0.873500000000     0.059680000000     0.738120000000    -0.200068   
N91      N      0.879450000000     0.061640000000     0.921810000000    -0.195378   
N92      N      0.917780000000     0.635240000000     0.489800000000    -0.201303   
N93      N      0.904000000000     0.824570000000     0.490640000000    -0.195414   
N94      N      0.864890000000     0.858970000000     0.922810000000    -0.201057   
N95      N      0.910820000000     0.830030000000     0.673080000000    -0.195946   
N96      N      0.871430000000     0.864810000000     0.740650000000    -0.199791   
O1       O      0.380780000000     0.412860000000     0.363810000000    -0.49727    
O2       O      0.304610000000     0.496110000000     0.278250000000    -0.503113   
O3       O      0.298930000000     0.361760000000     0.384370000000    -0.503265   
O4       O      0.320390000000     0.353600000000     0.300910000000    -0.495334   
O5       O      0.378400000000     0.494010000000     0.382840000000    -0.505907   
O6       O      0.218580000000     0.418890000000     0.298190000000    -0.495847   
O7       O      0.307760000000     0.431590000000     0.331340000000    -0.871283   
O8       O      0.245480000000     0.441420000000     0.382280000000    -0.503737   
O9       O      0.215990000000     0.358640000000     0.363560000000    -0.49856    
O10      O      0.376000000000     0.434360000000     0.279670000000    -0.504061   
O11      O      0.243470000000     0.361850000000     0.280140000000    -0.507333   
O12      O      0.326520000000     0.524170000000     0.362310000000    -0.495023   
O13      O      0.385100000000     0.521090000000     0.299040000000    -0.49663    
O14      O      0.457700000000     0.340340000000     0.049730000000    -0.493322   
O15      O      0.538680000000     0.259910000000     0.132320000000    -0.505756   
O16      O      0.405310000000     0.258050000000     0.029270000000    -0.507795   
O17      O      0.398520000000     0.278640000000     0.113070000000    -0.498651   
O18      O      0.538180000000     0.337980000000     0.030170000000    -0.502219   
O19      O      0.461570000000     0.174870000000     0.111620000000    -0.496605   
O20      O      0.475300000000     0.265900000000     0.080960000000    -0.870877   
O21      O      0.483660000000     0.204550000000     0.028070000000    -0.504055   
O22      O      0.401790000000     0.174030000000     0.048240000000    -0.496318   
O23      O      0.479370000000     0.334140000000     0.133840000000    -0.504959   
O24      O      0.406240000000     0.200490000000     0.132380000000    -0.506395   
O25      O      0.566980000000     0.284370000000     0.048870000000    -0.496467   
O26      O      0.564960000000     0.342180000000     0.114250000000    -0.493825   
O27      O      0.380780000000     0.412860000000     0.863810000000    -0.497248   
O28      O      0.304610000000     0.496110000000     0.778250000000    -0.503064   
O29      O      0.298930000000     0.361760000000     0.884370000000    -0.503239   
O30      O      0.320390000000     0.353600000000     0.800910000000    -0.495334   
O31      O      0.378400000000     0.494010000000     0.882840000000    -0.505902   
O32      O      0.218580000000     0.418890000000     0.798190000000    -0.495829   
O33      O      0.307760000000     0.431590000000     0.831340000000    -0.871274   
O34      O      0.245480000000     0.441420000000     0.882280000000    -0.503735   
O35      O      0.215990000000     0.358640000000     0.863560000000    -0.498559   
O36      O      0.376000000000     0.434360000000     0.779670000000    -0.504062   
O37      O      0.243470000000     0.361850000000     0.780140000000    -0.50731    
O38      O      0.326520000000     0.524170000000     0.862310000000    -0.495015   
O39      O      0.385100000000     0.521090000000     0.799040000000    -0.496523   
O40      O      0.457700000000     0.340340000000     0.549730000000    -0.4933     
O41      O      0.538680000000     0.259910000000     0.632330000000    -0.505643   
O42      O      0.405310000000     0.258050000000     0.529270000000    -0.507767   
O43      O      0.398520000000     0.278640000000     0.613070000000    -0.498647   
O44      O      0.538180000000     0.337980000000     0.530170000000    -0.502232   
O45      O      0.461570000000     0.174870000000     0.611620000000    -0.496588   
O46      O      0.475300000000     0.265900000000     0.580960000000    -0.870863   
O47      O      0.483660000000     0.204550000000     0.528070000000    -0.504026   
O48      O      0.401790000000     0.174030000000     0.548240000000    -0.496312   
O49      O      0.479370000000     0.334140000000     0.633840000000    -0.504958   
O50      O      0.406240000000     0.200490000000     0.632380000000    -0.506392   
O51      O      0.566980000000     0.284370000000     0.548870000000    -0.496474   
O52      O      0.564960000000     0.342180000000     0.614250000000    -0.493819   
O53      O      0.380780000000     0.912860000000     0.363810000000    -0.497248   
O54      O      0.304610000000     0.996110000000     0.278250000000    -0.503158   
O55      O      0.298930000000     0.861760000000     0.384370000000    -0.503256   
O56      O      0.320390000000     0.853600000000     0.300910000000    -0.495314   
O57      O      0.378400000000     0.994010000000     0.382840000000    -0.505912   
O58      O      0.218580000000     0.918890000000     0.298190000000    -0.495868   
O59      O      0.307760000000     0.931590000000     0.331340000000    -0.871106   
O60      O      0.245480000000     0.941420000000     0.382280000000    -0.503702   
O61      O      0.215990000000     0.858640000000     0.363560000000    -0.498539   
O62      O      0.376000000000     0.934360000000     0.279670000000    -0.504051   
O63      O      0.243470000000     0.861850000000     0.280140000000    -0.507237   
O64      O      0.326520000000     0.024170000000     0.362310000000    -0.495064   
O65      O      0.385100000000     0.021100000000     0.299040000000    -0.496577   
O66      O      0.457700000000     0.840340000000     0.049730000000    -0.493357   
O67      O      0.538680000000     0.759910000000     0.132320000000    -0.50576    
O68      O      0.405310000000     0.758050000000     0.029270000000    -0.5077     
O69      O      0.398520000000     0.778640000000     0.113070000000    -0.498652   
O70      O      0.538180000000     0.837980000000     0.030170000000    -0.502141   
O71      O      0.461560000000     0.674870000000     0.111620000000    -0.496687   
O72      O      0.475300000000     0.765900000000     0.080960000000    -0.870874   
O73      O      0.483660000000     0.704550000000     0.028070000000    -0.503982   
O74      O      0.401790000000     0.674030000000     0.048240000000    -0.496397   
O75      O      0.479370000000     0.834140000000     0.133840000000    -0.504958   
O76      O      0.406240000000     0.700490000000     0.132380000000    -0.506434   
O77      O      0.566980000000     0.784370000000     0.048870000000    -0.496549   
O78      O      0.564960000000     0.842180000000     0.114250000000    -0.493822   
O79      O      0.380780000000     0.912860000000     0.863810000000    -0.497226   
O80      O      0.304610000000     0.996110000000     0.778250000000    -0.503108   
O81      O      0.298930000000     0.861760000000     0.884370000000    -0.503231   
O82      O      0.320390000000     0.853600000000     0.800910000000    -0.495314   
O83      O      0.378400000000     0.994010000000     0.882840000000    -0.505906   
O84      O      0.218580000000     0.918890000000     0.798190000000    -0.49585    
O85      O      0.307760000000     0.931590000000     0.831340000000    -0.871097   
O86      O      0.245480000000     0.941420000000     0.882280000000    -0.5037     
O87      O      0.215990000000     0.858640000000     0.863560000000    -0.498538   
O88      O      0.376000000000     0.934360000000     0.779670000000    -0.504052   
O89      O      0.243470000000     0.861850000000     0.780140000000    -0.507214   
O90      O      0.326520000000     0.024170000000     0.862310000000    -0.495056   
O91      O      0.385100000000     0.021100000000     0.799040000000    -0.496471   
O92      O      0.457700000000     0.840340000000     0.549730000000    -0.493335   
O93      O      0.538680000000     0.759910000000     0.632330000000    -0.505646   
O94      O      0.405310000000     0.758050000000     0.529270000000    -0.507673   
O95      O      0.398520000000     0.778640000000     0.613070000000    -0.498649   
O96      O      0.538180000000     0.837980000000     0.530170000000    -0.502154   
O97      O      0.461560000000     0.674870000000     0.611620000000    -0.49667    
O98      O      0.475300000000     0.765900000000     0.580960000000    -0.87086    
O99      O      0.483660000000     0.704550000000     0.528070000000    -0.503953   
O100     O      0.401790000000     0.674030000000     0.548240000000    -0.49639    
O101     O      0.479370000000     0.834140000000     0.633840000000    -0.504957   
O102     O      0.406240000000     0.700490000000     0.632380000000    -0.50643    
O103     O      0.566980000000     0.784370000000     0.548870000000    -0.496556   
O104     O      0.564960000000     0.842180000000     0.614250000000    -0.493816   
O105     O      0.880780000000     0.412860000000     0.363810000000    -0.497086   
O106     O      0.804610000000     0.496110000000     0.278250000000    -0.503096   
O107     O      0.798930000000     0.361760000000     0.384370000000    -0.503271   
O108     O      0.820390000000     0.353600000000     0.300910000000    -0.495289   
O109     O      0.878400000000     0.494010000000     0.382840000000    -0.505782   
O110     O      0.718580000000     0.418890000000     0.298190000000    -0.495719   
O111     O      0.807760000000     0.431590000000     0.331340000000    -0.871399   
O112     O      0.745480000000     0.441420000000     0.382280000000    -0.503709   
O113     O      0.715990000000     0.358640000000     0.363560000000    -0.49844    
O114     O      0.876000000000     0.434360000000     0.279670000000    -0.504026   
O115     O      0.743470000000     0.361850000000     0.280140000000    -0.507322   
O116     O      0.826520000000     0.524170000000     0.362310000000    -0.494949   
O117     O      0.885100000000     0.521090000000     0.299040000000    -0.496476   
O118     O      0.957700000000     0.340340000000     0.049730000000    -0.491086   
O119     O      0.038680000000     0.259910000000     0.132320000000    -0.505702   
O120     O      0.905310000000     0.258050000000     0.029270000000    -0.507275   
O121     O      0.898530000000     0.278640000000     0.113070000000    -0.498233   
O122     O      0.038180000000     0.337980000000     0.030170000000    -0.50217    
O123     O      0.961560000000     0.174870000000     0.111620000000    -0.494326   
O124     O      0.975300000000     0.265900000000     0.080960000000    -0.866431   
O125     O      0.983660000000     0.204550000000     0.028070000000    -0.500939   
O126     O      0.901790000000     0.174030000000     0.048240000000    -0.495964   
O127     O      0.979380000000     0.334140000000     0.133840000000    -0.502195   
O128     O      0.906240000000     0.200490000000     0.132380000000    -0.50588    
O129     O      0.066980000000     0.284370000000     0.048870000000    -0.495748   
O130     O      0.064960000000     0.342180000000     0.114250000000    -0.493225   
O131     O      0.880780000000     0.412860000000     0.863810000000    -0.497063   
O132     O      0.804610000000     0.496110000000     0.778250000000    -0.503046   
O133     O      0.798930000000     0.361760000000     0.884370000000    -0.503246   
O134     O      0.820390000000     0.353600000000     0.800910000000    -0.495288   
O135     O      0.878400000000     0.494010000000     0.882840000000    -0.505777   
O136     O      0.718580000000     0.418890000000     0.798190000000    -0.495701   
O137     O      0.807760000000     0.431590000000     0.831340000000    -0.87139    
O138     O      0.745480000000     0.441420000000     0.882280000000    -0.503707   
O139     O      0.715990000000     0.358640000000     0.863560000000    -0.498439   
O140     O      0.876000000000     0.434360000000     0.779670000000    -0.504027   
O141     O      0.743470000000     0.361850000000     0.780140000000    -0.507299   
O142     O      0.826520000000     0.524170000000     0.862310000000    -0.494941   
O143     O      0.885100000000     0.521090000000     0.799040000000    -0.496369   
O144     O      0.957700000000     0.340340000000     0.549730000000    -0.491064   
O145     O      0.038680000000     0.259910000000     0.632330000000    -0.505589   
O146     O      0.905310000000     0.258050000000     0.529270000000    -0.507247   
O147     O      0.898530000000     0.278640000000     0.613070000000    -0.49823    
O148     O      0.038180000000     0.337980000000     0.530170000000    -0.502183   
O149     O      0.961560000000     0.174870000000     0.611620000000    -0.494309   
O150     O      0.975300000000     0.265900000000     0.580960000000    -0.866417   
O151     O      0.983660000000     0.204550000000     0.528070000000    -0.50091    
O152     O      0.901790000000     0.174030000000     0.548240000000    -0.495957   
O153     O      0.979380000000     0.334140000000     0.633840000000    -0.502194   
O154     O      0.906240000000     0.200490000000     0.632380000000    -0.505876   
O155     O      0.066980000000     0.284370000000     0.548870000000    -0.495755   
O156     O      0.064960000000     0.342180000000     0.614250000000    -0.493219   
O157     O      0.880780000000     0.912860000000     0.363810000000    -0.497081   
O158     O      0.804610000000     0.996110000000     0.278250000000    -0.503141   
O159     O      0.798930000000     0.861760000000     0.384370000000    -0.503275   
O160     O      0.820390000000     0.853600000000     0.300910000000    -0.495269   
O161     O      0.878400000000     0.994010000000     0.382840000000    -0.505786   
O162     O      0.718580000000     0.918890000000     0.298190000000    -0.49574    
O163     O      0.807760000000     0.931590000000     0.331340000000    -0.871222   
O164     O      0.745480000000     0.941420000000     0.382280000000    -0.503674   
O165     O      0.715990000000     0.858640000000     0.363560000000    -0.498418   
O166     O      0.876000000000     0.934360000000     0.279670000000    -0.504014   
O167     O      0.743470000000     0.861850000000     0.280140000000    -0.507226   
O168     O      0.826520000000     0.024170000000     0.362310000000    -0.494987   
O169     O      0.885100000000     0.021100000000     0.299040000000    -0.496424   
O170     O      0.957700000000     0.840340000000     0.049730000000    -0.491099   
O171     O      0.038680000000     0.759910000000     0.132320000000    -0.505725   
O172     O      0.905310000000     0.758050000000     0.029270000000    -0.507151   
O173     O      0.898520000000     0.778640000000     0.113070000000    -0.498146   
O174     O      0.038180000000     0.837980000000     0.030170000000    -0.502074   
O175     O      0.961560000000     0.674870000000     0.111620000000    -0.494333   
O176     O      0.975300000000     0.765900000000     0.080960000000    -0.866413   
O177     O      0.983660000000     0.704550000000     0.028070000000    -0.501017   
O178     O      0.901790000000     0.674030000000     0.048240000000    -0.495873   
O179     O      0.979370000000     0.834140000000     0.133840000000    -0.502383   
O180     O      0.906240000000     0.700490000000     0.132380000000    -0.505881   
O181     O      0.066980000000     0.784370000000     0.048870000000    -0.495822   
O182     O      0.064970000000     0.842180000000     0.114250000000    -0.493195   
O183     O      0.880780000000     0.912860000000     0.863810000000    -0.497059   
O184     O      0.804610000000     0.996110000000     0.778250000000    -0.503092   
O185     O      0.798930000000     0.861760000000     0.884370000000    -0.503249   
O186     O      0.820390000000     0.853600000000     0.800910000000    -0.495268   
O187     O      0.878400000000     0.994010000000     0.882840000000    -0.505781   
O188     O      0.718580000000     0.918890000000     0.798190000000    -0.495723   
O189     O      0.807760000000     0.931590000000     0.831340000000    -0.871213   
O190     O      0.745480000000     0.941420000000     0.882280000000    -0.503673   
O191     O      0.715990000000     0.858640000000     0.863560000000    -0.498417   
O192     O      0.876000000000     0.934360000000     0.779670000000    -0.504014   
O193     O      0.743470000000     0.861850000000     0.780140000000    -0.507203   
O194     O      0.826520000000     0.024170000000     0.862310000000    -0.494979   
O195     O      0.885100000000     0.021100000000     0.799040000000    -0.496318   
O196     O      0.957700000000     0.840340000000     0.549730000000    -0.491076   
O197     O      0.038680000000     0.759910000000     0.632330000000    -0.505612   
O198     O      0.905310000000     0.758050000000     0.529270000000    -0.507123   
O199     O      0.898520000000     0.778640000000     0.613070000000    -0.498143   
O200     O      0.038180000000     0.837980000000     0.530170000000    -0.502087   
O201     O      0.961560000000     0.674870000000     0.611620000000    -0.494316   
O202     O      0.975300000000     0.765900000000     0.580960000000    -0.866399   
O203     O      0.983660000000     0.704550000000     0.528070000000    -0.500988   
O204     O      0.901790000000     0.674030000000     0.548240000000    -0.495867   
O205     O      0.979370000000     0.834140000000     0.633840000000    -0.502382   
O206     O      0.906240000000     0.700490000000     0.632380000000    -0.505878   
O207     O      0.066980000000     0.784370000000     0.548870000000    -0.495829   
O208     O      0.064970000000     0.842180000000     0.614250000000    -0.49319    
S1       S      0.619780000000     0.437180000000     0.499130000000    -0.0159692  
S2       S      0.618870000000     0.242670000000     0.163600000000    -0.0139901  
S3       S      0.458430000000     0.050160000000     0.230100000000    -0.00506721 
S4       S      0.500490000000     0.121970000000     0.997890000000    -0.0172918  
S5       S      0.281690000000     0.262620000000     0.915880000000    -0.0163719  
S6       S      0.278450000000     0.277100000000     0.234110000000    -0.0068033  
S7       S      0.619780000000     0.437180000000     0.999130000000    -0.0159431  
S8       S      0.618870000000     0.242670000000     0.663600000000    -0.0139821  
S9       S      0.458430000000     0.050160000000     0.730100000000    -0.00507362 
S10      S      0.500490000000     0.121970000000     0.497890000000    -0.0173211  
S11      S      0.281690000000     0.262620000000     0.415880000000    -0.0163736  
S12      S      0.278450000000     0.277100000000     0.734110000000    -0.00680249 
S13      S      0.619790000000     0.937190000000     0.499130000000    -0.0159794  
S14      S      0.618870000000     0.742670000000     0.163600000000    -0.013993   
S15      S      0.458430000000     0.550160000000     0.230100000000    -0.0050679  
S16      S      0.500490000000     0.621970000000     0.997890000000    -0.0172972  
S17      S      0.281690000000     0.762620000000     0.915880000000    -0.0163681  
S18      S      0.278450000000     0.777100000000     0.234110000000    -0.00681638 
S19      S      0.619790000000     0.937190000000     0.999130000000    -0.0159533  
S20      S      0.618870000000     0.742670000000     0.663600000000    -0.013985   
S21      S      0.458430000000     0.550160000000     0.730100000000    -0.00507431 
S22      S      0.500490000000     0.621970000000     0.497890000000    -0.0173265  
S23      S      0.281690000000     0.762620000000     0.415880000000    -0.0163699  
S24      S      0.278450000000     0.777100000000     0.734110000000    -0.00681557 
S25      S      0.119790000000     0.437180000000     0.499130000000    -0.0169141  
S26      S      0.118870000000     0.242670000000     0.163600000000    -0.0149327  
S27      S      0.958430000000     0.050160000000     0.230100000000    -0.00377447 
S28      S      0.000490000000     0.121970000000     0.997890000000    -0.0224471  
S29      S      0.781690000000     0.262620000000     0.915880000000    -0.0160152  
S30      S      0.778450000000     0.277100000000     0.234110000000    -0.00650176 
S31      S      0.119790000000     0.437180000000     0.999130000000    -0.0168878  
S32      S      0.118870000000     0.242670000000     0.663600000000    -0.0149246  
S33      S      0.958430000000     0.050160000000     0.730100000000    -0.00378093 
S34      S      0.000490000000     0.121970000000     0.497890000000    -0.022477   
S35      S      0.781690000000     0.262620000000     0.415880000000    -0.0160169  
S36      S      0.778450000000     0.277100000000     0.734110000000    -0.00650096 
S37      S      0.119790000000     0.937190000000     0.499130000000    -0.0169121  
S38      S      0.118870000000     0.742670000000     0.163600000000    -0.0149195  
S39      S      0.958430000000     0.550160000000     0.230100000000    -0.00377617 
S40      S      0.000490000000     0.621970000000     0.997890000000    -0.0224601  
S41      S      0.781690000000     0.762620000000     0.915880000000    -0.016019   
S42      S      0.778450000000     0.777100000000     0.234110000000    -0.00651682 
S43      S      0.119790000000     0.937190000000     0.999130000000    -0.0168857  
S44      S      0.118870000000     0.742670000000     0.663600000000    -0.0149114  
S45      S      0.958430000000     0.550160000000     0.730100000000    -0.00378262 
S46      S      0.000490000000     0.621970000000     0.497890000000    -0.0224901  
S47      S      0.781690000000     0.762620000000     0.415880000000    -0.0160207  
S48      S      0.778450000000     0.777100000000     0.734110000000    -0.00651601 


