data_structure

_audit_creation_method RASPA-1.0
_audit_creation_date 2023-6-4
_audit_author_name 'Poobodin Mano'

_cell_length_a    29.0078
_cell_length_b    28.8493
_cell_length_c    30.8514
_cell_angle_alpha 90
_cell_angle_beta  90
_cell_angle_gamma 120
_cell_volume      22359.2

_symmetry_cell_setting          triclinic
_symmetry_space_group_name_Hall 'P 1'
_symmetry_space_group_name_H-M  'P 1'
_symmetry_Int_Tables_number     1

_symmetry_equiv_pos_as_xyz 'x,y,z'

loop_
_atom_site_label
_atom_site_type_symbol
_atom_site_fract_x
_atom_site_fract_y
_atom_site_fract_z
_atom_site_charge
C1       C      0.360600000000     0.391190000000     0.273490000000     0.526072   
C2       C      0.362250000000     0.386800000000     0.391160000000     0.525056   
C3       C      0.221060000000     0.390890000000     0.393690000000     0.540113   
C4       C      0.356640000000     0.530940000000     0.279000000000     0.536344   
C5       C      0.365260000000     0.524140000000     0.395400000000     0.530799   
C6       C      0.220340000000     0.382860000000     0.278650000000     0.529202   
C7       C      0.438740000000     0.319240000000     0.142100000000     0.529785   
C8       C      0.433940000000     0.312030000000     0.025480000000     0.531      
C9       C      0.438850000000     0.174680000000     0.026920000000     0.531671   
C10      C      0.575540000000     0.310410000000     0.143190000000     0.531939   
C11      C      0.575270000000     0.318010000000     0.027750000000     0.528588   
C12      C      0.429580000000     0.175350000000     0.143350000000     0.529134   
C13      C      0.136470000000     0.309010000000     0.982060000000     0.0314661  
C14      C      0.621260000000     0.381310000000     0.472100000000    -0.00803007 
C15      C      0.171450000000     0.326740000000     0.946920000000     0.0385935  
C16      C      0.656830000000     0.399970000000     0.437050000000     0.150064   
C17      C      0.161500000000     0.393230000000     0.230920000000     0.0319114  
C18      C      0.172130000000     0.317770000000     0.224430000000    -0.00704034 
C19      C      0.626930000000     0.375600000000     0.195420000000     0.0383041  
C20      C      0.637010000000     0.299240000000     0.188960000000     0.14913    
C21      C      0.438560000000     0.115540000000     0.190820000000     0.0323699  
C22      C      0.365750000000     0.129770000000     0.198830000000    -0.00732211 
C23      C      0.420840000000     0.581030000000     0.226290000000     0.0393685  
C24      C      0.346810000000     0.594190000000     0.234120000000     0.150145   
C25      C      0.373930000000     0.123040000000     0.474180000000     0.0326608  
C26      C      0.447500000000     0.110830000000     0.984990000000    -0.00601313 
C27      C      0.355960000000     0.085190000000     0.440900000000     0.0372725  
C28      C      0.424950000000     0.566720000000     0.956710000000     0.148785   
C29      C      0.367550000000     0.300650000000     0.475000000000     0.0325025  
C30      C      0.451210000000     0.379340000000     0.973770000000    -0.00509981 
C31      C      0.349790000000     0.321170000000     0.442320000000     0.0342789  
C32      C      0.435390000000     0.398890000000     0.938350000000     0.14452    
C33      C      0.450310000000     0.385350000000     0.193820000000     0.0311121  
C34      C      0.367870000000     0.305540000000     0.188070000000    -0.00639168 
C35      C      0.428910000000     0.403900000000     0.225290000000     0.037133   
C36      C      0.346540000000     0.322400000000     0.221250000000     0.150783   
C37      C      0.360600000000     0.391190000000     0.773490000000     0.525994   
C38      C      0.362250000000     0.386800000000     0.891160000000     0.525059   
C39      C      0.221060000000     0.390890000000     0.893690000000     0.540115   
C40      C      0.356640000000     0.530940000000     0.779010000000     0.536418   
C41      C      0.365260000000     0.524140000000     0.895400000000     0.530803   
C42      C      0.220340000000     0.382860000000     0.778650000000     0.529202   
C43      C      0.438740000000     0.319240000000     0.642100000000     0.529855   
C44      C      0.433940000000     0.312030000000     0.525470000000     0.530951   
C45      C      0.438850000000     0.174680000000     0.526920000000     0.531681   
C46      C      0.575540000000     0.310410000000     0.643190000000     0.532052   
C47      C      0.575270000000     0.318010000000     0.527750000000     0.528622   
C48      C      0.429580000000     0.175350000000     0.643350000000     0.529013   
C49      C      0.136470000000     0.309010000000     0.482060000000     0.031461   
C50      C      0.621260000000     0.381310000000     0.972100000000    -0.00802078 
C51      C      0.171450000000     0.326740000000     0.446920000000     0.0385908  
C52      C      0.656830000000     0.399970000000     0.937050000000     0.150056   
C53      C      0.161500000000     0.393230000000     0.730920000000     0.0319096  
C54      C      0.172130000000     0.317770000000     0.724430000000    -0.00703645 
C55      C      0.626930000000     0.375600000000     0.695420000000     0.0383133  
C56      C      0.637010000000     0.299240000000     0.688960000000     0.149132   
C57      C      0.438560000000     0.115540000000     0.690820000000     0.0323579  
C58      C      0.365750000000     0.129770000000     0.698820000000    -0.00727839 
C59      C      0.420840000000     0.581030000000     0.726300000000     0.0393935  
C60      C      0.346810000000     0.594190000000     0.734120000000     0.150117   
C61      C      0.373930000000     0.123040000000     0.974180000000     0.0326677  
C62      C      0.447500000000     0.110830000000     0.484990000000    -0.00606975 
C63      C      0.355960000000     0.085190000000     0.940900000000     0.037272   
C64      C      0.424950000000     0.566720000000     0.456710000000     0.148794   
C65      C      0.367550000000     0.300650000000     0.975000000000     0.0324944  
C66      C      0.451210000000     0.379340000000     0.473770000000    -0.00508771 
C67      C      0.349790000000     0.321170000000     0.942320000000     0.0342851  
C68      C      0.435390000000     0.398890000000     0.438350000000     0.144509   
C69      C      0.450310000000     0.385350000000     0.693820000000     0.031111   
C70      C      0.367870000000     0.305540000000     0.688070000000    -0.00636854 
C71      C      0.428910000000     0.403900000000     0.725290000000     0.0371382  
C72      C      0.346540000000     0.322400000000     0.721260000000     0.150811   
C73      C      0.360600000000     0.891190000000     0.273490000000     0.525867   
C74      C      0.362250000000     0.886800000000     0.391160000000     0.525052   
C75      C      0.221060000000     0.890900000000     0.393690000000     0.540284   
C76      C      0.356640000000     0.030940000000     0.279000000000     0.536332   
C77      C      0.365260000000     0.024140000000     0.395400000000     0.530804   
C78      C      0.220340000000     0.882850000000     0.278650000000     0.529207   
C79      C      0.438740000000     0.819240000000     0.142100000000     0.529791   
C80      C      0.433940000000     0.812030000000     0.025480000000     0.531013   
C81      C      0.438850000000     0.674680000000     0.026920000000     0.531709   
C82      C      0.575540000000     0.810410000000     0.143190000000     0.531944   
C83      C      0.575270000000     0.818010000000     0.027750000000     0.528584   
C84      C      0.429580000000     0.675350000000     0.143350000000     0.529116   
C85      C      0.136470000000     0.809010000000     0.982060000000     0.0314564  
C86      C      0.621260000000     0.881310000000     0.472100000000    -0.0080284  
C87      C      0.171450000000     0.826740000000     0.946920000000     0.0386129  
C88      C      0.656830000000     0.899970000000     0.437050000000     0.150053   
C89      C      0.161500000000     0.893230000000     0.230920000000     0.0319418  
C90      C      0.172130000000     0.817770000000     0.224430000000    -0.00705206 
C91      C      0.626920000000     0.875600000000     0.195420000000     0.038269   
C92      C      0.637010000000     0.799250000000     0.188960000000     0.149132   
C93      C      0.438560000000     0.615540000000     0.190820000000     0.0323635  
C94      C      0.365750000000     0.629770000000     0.198830000000    -0.00732862 
C95      C      0.420840000000     0.081030000000     0.226290000000     0.0393673  
C96      C      0.346800000000     0.094190000000     0.234120000000     0.150143   
C97      C      0.373930000000     0.623040000000     0.474180000000     0.0327175  
C98      C      0.447500000000     0.610830000000     0.984990000000    -0.0060572  
C99      C      0.355960000000     0.585190000000     0.440900000000     0.0372559  
C100     C      0.424950000000     0.066720000000     0.956710000000     0.148794   
C101     C      0.367550000000     0.800650000000     0.475000000000     0.0325025  
C102     C      0.451210000000     0.879340000000     0.973770000000    -0.00509976 
C103     C      0.349790000000     0.821170000000     0.442320000000     0.0342775  
C104     C      0.435390000000     0.898890000000     0.938350000000     0.144517   
C105     C      0.450310000000     0.885340000000     0.193820000000     0.0311683  
C106     C      0.367870000000     0.805540000000     0.188070000000    -0.00638665 
C107     C      0.428910000000     0.903900000000     0.225290000000     0.0370963  
C108     C      0.346540000000     0.822400000000     0.221250000000     0.150775   
C109     C      0.360600000000     0.891190000000     0.773490000000     0.525788   
C110     C      0.362250000000     0.886800000000     0.891160000000     0.525055   
C111     C      0.221060000000     0.890900000000     0.893690000000     0.540287   
C112     C      0.356640000000     0.030940000000     0.779010000000     0.536406   
C113     C      0.365260000000     0.024140000000     0.895400000000     0.530809   
C114     C      0.220340000000     0.882850000000     0.778650000000     0.529207   
C115     C      0.438740000000     0.819240000000     0.642100000000     0.529862   
C116     C      0.433940000000     0.812030000000     0.525470000000     0.530964   
C117     C      0.438850000000     0.674680000000     0.526920000000     0.531719   
C118     C      0.575540000000     0.810410000000     0.643190000000     0.532057   
C119     C      0.575270000000     0.818010000000     0.527750000000     0.528618   
C120     C      0.429580000000     0.675350000000     0.643350000000     0.528996   
C121     C      0.136470000000     0.809010000000     0.482060000000     0.0314512  
C122     C      0.621260000000     0.881310000000     0.972100000000    -0.00801912 
C123     C      0.171450000000     0.826740000000     0.446920000000     0.0386102  
C124     C      0.656830000000     0.899970000000     0.937050000000     0.150045   
C125     C      0.161500000000     0.893230000000     0.730920000000     0.03194    
C126     C      0.172130000000     0.817770000000     0.724430000000    -0.00704817 
C127     C      0.626920000000     0.875600000000     0.695420000000     0.0382782  
C128     C      0.637010000000     0.799250000000     0.688960000000     0.149135   
C129     C      0.438560000000     0.615540000000     0.690820000000     0.0323516  
C130     C      0.365750000000     0.629770000000     0.698820000000    -0.0072849  
C131     C      0.420840000000     0.081030000000     0.726300000000     0.0393924  
C132     C      0.346800000000     0.094190000000     0.734120000000     0.150115   
C133     C      0.373930000000     0.623040000000     0.974180000000     0.0327243  
C134     C      0.447500000000     0.610830000000     0.484990000000    -0.00611381 
C135     C      0.355960000000     0.585190000000     0.940900000000     0.0372554  
C136     C      0.424950000000     0.066720000000     0.456710000000     0.148803   
C137     C      0.367550000000     0.800650000000     0.975000000000     0.0324944  
C138     C      0.451210000000     0.879340000000     0.473770000000    -0.00508765 
C139     C      0.349790000000     0.821170000000     0.942320000000     0.0342837  
C140     C      0.435390000000     0.898890000000     0.438350000000     0.144506   
C141     C      0.450310000000     0.885340000000     0.693820000000     0.0311672  
C142     C      0.367870000000     0.805540000000     0.688070000000    -0.00636352 
C143     C      0.428910000000     0.903900000000     0.725290000000     0.0371016  
C144     C      0.346540000000     0.822400000000     0.721260000000     0.150802   
C145     C      0.860600000000     0.391190000000     0.273490000000     0.526129   
C146     C      0.862250000000     0.386800000000     0.391160000000     0.525067   
C147     C      0.721060000000     0.390890000000     0.393690000000     0.540176   
C148     C      0.856640000000     0.530940000000     0.279000000000     0.536547   
C149     C      0.865260000000     0.524140000000     0.395400000000     0.530895   
C150     C      0.720340000000     0.382860000000     0.278650000000     0.529409   
C151     C      0.938740000000     0.319240000000     0.142100000000     0.529097   
C152     C      0.933940000000     0.312030000000     0.025480000000     0.530542   
C153     C      0.938850000000     0.174680000000     0.026920000000     0.530969   
C154     C      0.075540000000     0.310410000000     0.143190000000     0.531068   
C155     C      0.075270000000     0.318010000000     0.027750000000     0.527648   
C156     C      0.929580000000     0.175350000000     0.143350000000     0.528661   
C157     C      0.636470000000     0.309010000000     0.982060000000     0.0317323  
C158     C      0.121260000000     0.381310000000     0.472100000000    -0.00824028 
C159     C      0.671450000000     0.326740000000     0.946920000000     0.0387523  
C160     C      0.156830000000     0.399970000000     0.437050000000     0.149836   
C161     C      0.661500000000     0.393230000000     0.230920000000     0.0320915  
C162     C      0.672130000000     0.317770000000     0.224430000000    -0.00692779 
C163     C      0.126930000000     0.375600000000     0.195420000000     0.0380393  
C164     C      0.137010000000     0.299240000000     0.188960000000     0.148812   
C165     C      0.938560000000     0.115540000000     0.190820000000     0.0325374  
C166     C      0.865740000000     0.129770000000     0.198830000000    -0.00732238 
C167     C      0.920840000000     0.581030000000     0.226290000000     0.0395949  
C168     C      0.846800000000     0.594190000000     0.234120000000     0.150282   
C169     C      0.873930000000     0.123040000000     0.474180000000     0.032711   
C170     C      0.947500000000     0.110830000000     0.984990000000    -0.00587634 
C171     C      0.855960000000     0.085190000000     0.440900000000     0.0374637  
C172     C      0.924950000000     0.566720000000     0.956710000000     0.149087   
C173     C      0.867550000000     0.300650000000     0.475000000000     0.0326227  
C174     C      0.951210000000     0.379340000000     0.973770000000    -0.00475514 
C175     C      0.849780000000     0.321170000000     0.442320000000     0.03434    
C176     C      0.935390000000     0.398890000000     0.938350000000     0.144654   
C177     C      0.950320000000     0.385350000000     0.193820000000     0.0312636  
C178     C      0.867870000000     0.305540000000     0.188070000000    -0.00633727 
C179     C      0.928910000000     0.403900000000     0.225290000000     0.0373556  
C180     C      0.846540000000     0.322400000000     0.221250000000     0.150898   
C181     C      0.860600000000     0.391190000000     0.773490000000     0.52605    
C182     C      0.862250000000     0.386800000000     0.891160000000     0.52507    
C183     C      0.721060000000     0.390890000000     0.893690000000     0.540178   
C184     C      0.856640000000     0.530940000000     0.779010000000     0.536621   
C185     C      0.865260000000     0.524140000000     0.895400000000     0.530899   
C186     C      0.720340000000     0.382860000000     0.778650000000     0.529409   
C187     C      0.938740000000     0.319240000000     0.642100000000     0.529167   
C188     C      0.933940000000     0.312030000000     0.525470000000     0.530493   
C189     C      0.938850000000     0.174680000000     0.526920000000     0.530979   
C190     C      0.075540000000     0.310410000000     0.643190000000     0.531181   
C191     C      0.075270000000     0.318010000000     0.527750000000     0.527682   
C192     C      0.929580000000     0.175350000000     0.643350000000     0.528541   
C193     C      0.636470000000     0.309010000000     0.482060000000     0.0317272  
C194     C      0.121260000000     0.381310000000     0.972100000000    -0.00823098 
C195     C      0.671450000000     0.326740000000     0.446920000000     0.0387496  
C196     C      0.156830000000     0.399970000000     0.937050000000     0.149829   
C197     C      0.661500000000     0.393230000000     0.730920000000     0.0320897  
C198     C      0.672130000000     0.317770000000     0.724430000000    -0.00692393 
C199     C      0.126930000000     0.375600000000     0.695420000000     0.0380486  
C200     C      0.137010000000     0.299240000000     0.688960000000     0.148815   
C201     C      0.938560000000     0.115540000000     0.690820000000     0.0325255  
C202     C      0.865740000000     0.129770000000     0.698820000000    -0.00727872 
C203     C      0.920840000000     0.581030000000     0.726300000000     0.03962    
C204     C      0.846800000000     0.594190000000     0.734120000000     0.150253   
C205     C      0.873930000000     0.123040000000     0.974180000000     0.0327178  
C206     C      0.947500000000     0.110830000000     0.484990000000    -0.0059327  
C207     C      0.855960000000     0.085190000000     0.940900000000     0.0374631  
C208     C      0.924950000000     0.566720000000     0.456710000000     0.149095   
C209     C      0.867550000000     0.300650000000     0.975000000000     0.0326145  
C210     C      0.951210000000     0.379340000000     0.473770000000    -0.00474282 
C211     C      0.849780000000     0.321170000000     0.942320000000     0.0343462  
C212     C      0.935390000000     0.398890000000     0.438350000000     0.144642   
C213     C      0.950320000000     0.385350000000     0.693820000000     0.0312625  
C214     C      0.867870000000     0.305540000000     0.688070000000    -0.00631414 
C215     C      0.928910000000     0.403900000000     0.725290000000     0.0373608  
C216     C      0.846540000000     0.322400000000     0.721260000000     0.150926   
C217     C      0.860600000000     0.891190000000     0.273490000000     0.525923   
C218     C      0.862250000000     0.886800000000     0.391160000000     0.525064   
C219     C      0.721060000000     0.890900000000     0.393690000000     0.540347   
C220     C      0.856640000000     0.030940000000     0.279000000000     0.536368   
C221     C      0.865260000000     0.024140000000     0.395400000000     0.530894   
C222     C      0.720340000000     0.882850000000     0.278650000000     0.529412   
C223     C      0.938740000000     0.819240000000     0.142100000000     0.529104   
C224     C      0.933940000000     0.812030000000     0.025480000000     0.530553   
C225     C      0.938850000000     0.674680000000     0.026920000000     0.531003   
C226     C      0.075540000000     0.810410000000     0.143190000000     0.531073   
C227     C      0.075270000000     0.818010000000     0.027750000000     0.527644   
C228     C      0.929580000000     0.675350000000     0.143350000000     0.528645   
C229     C      0.636470000000     0.809010000000     0.982060000000     0.0317225  
C230     C      0.121260000000     0.881310000000     0.472100000000    -0.00823863 
C231     C      0.671450000000     0.826740000000     0.946920000000     0.0387718  
C232     C      0.156830000000     0.899970000000     0.437050000000     0.149825   
C233     C      0.661500000000     0.893230000000     0.230920000000     0.0321219  
C234     C      0.672130000000     0.817770000000     0.224430000000    -0.00693966 
C235     C      0.126920000000     0.875600000000     0.195420000000     0.0380037  
C236     C      0.137010000000     0.799250000000     0.188960000000     0.148815   
C237     C      0.938560000000     0.615540000000     0.190820000000     0.032538   
C238     C      0.865750000000     0.629770000000     0.198830000000    -0.00724224 
C239     C      0.920840000000     0.081030000000     0.226290000000     0.0395959  
C240     C      0.846810000000     0.094190000000     0.234120000000     0.150323   
C241     C      0.873930000000     0.623040000000     0.474180000000     0.0327384  
C242     C      0.947500000000     0.610830000000     0.984990000000    -0.00588812 
C243     C      0.855960000000     0.585190000000     0.440900000000     0.0373974  
C244     C      0.924950000000     0.066720000000     0.956710000000     0.14906    
C245     C      0.867550000000     0.800650000000     0.475000000000     0.0326026  
C246     C      0.951210000000     0.879340000000     0.973770000000    -0.00475753 
C247     C      0.849790000000     0.821170000000     0.442320000000     0.0343655  
C248     C      0.935390000000     0.898890000000     0.938350000000     0.144652   
C249     C      0.950310000000     0.885340000000     0.193820000000     0.031343   
C250     C      0.867870000000     0.805540000000     0.188070000000    -0.00633162 
C251     C      0.928910000000     0.903900000000     0.225290000000     0.0373008  
C252     C      0.846540000000     0.822400000000     0.221250000000     0.150888   
C253     C      0.860600000000     0.891190000000     0.773490000000     0.525844   
C254     C      0.862250000000     0.886800000000     0.891160000000     0.525067   
C255     C      0.721060000000     0.890900000000     0.893690000000     0.540349   
C256     C      0.856640000000     0.030940000000     0.779010000000     0.536442   
C257     C      0.865260000000     0.024140000000     0.895400000000     0.530899   
C258     C      0.720340000000     0.882850000000     0.778650000000     0.529412   
C259     C      0.938740000000     0.819240000000     0.642100000000     0.529175   
C260     C      0.933940000000     0.812030000000     0.525470000000     0.530505   
C261     C      0.938850000000     0.674680000000     0.526920000000     0.531014   
C262     C      0.075540000000     0.810410000000     0.643190000000     0.531186   
C263     C      0.075270000000     0.818010000000     0.527750000000     0.527678   
C264     C      0.929580000000     0.675350000000     0.643350000000     0.528525   
C265     C      0.636470000000     0.809010000000     0.482060000000     0.0317174  
C266     C      0.121260000000     0.881310000000     0.972100000000    -0.00822932 
C267     C      0.671450000000     0.826740000000     0.446920000000     0.0387691  
C268     C      0.156830000000     0.899970000000     0.937050000000     0.149817   
C269     C      0.661500000000     0.893230000000     0.730920000000     0.0321201  
C270     C      0.672130000000     0.817770000000     0.724430000000    -0.0069358  
C271     C      0.126920000000     0.875600000000     0.695420000000     0.0380129  
C272     C      0.137010000000     0.799250000000     0.688960000000     0.148817   
C273     C      0.938560000000     0.615540000000     0.690820000000     0.0325261  
C274     C      0.865750000000     0.629770000000     0.698820000000    -0.00719858 
C275     C      0.920840000000     0.081030000000     0.726300000000     0.039621   
C276     C      0.846810000000     0.094190000000     0.734120000000     0.150295   
C277     C      0.873930000000     0.623040000000     0.974180000000     0.0327452  
C278     C      0.947500000000     0.610830000000     0.484990000000    -0.00594448 
C279     C      0.855960000000     0.585190000000     0.940900000000     0.0373969  
C280     C      0.924950000000     0.066720000000     0.456710000000     0.149068   
C281     C      0.867550000000     0.800650000000     0.975000000000     0.0325944  
C282     C      0.951210000000     0.879340000000     0.473770000000    -0.00474521 
C283     C      0.849790000000     0.821170000000     0.942320000000     0.0343717  
C284     C      0.935390000000     0.898890000000     0.438350000000     0.14464    
C285     C      0.950310000000     0.885340000000     0.693820000000     0.0313419  
C286     C      0.867870000000     0.805540000000     0.688070000000    -0.0063085  
C287     C      0.928910000000     0.903900000000     0.725290000000     0.037306   
C288     C      0.846540000000     0.822400000000     0.721260000000     0.150915   
Fe1      Fe     0.282230000000     0.367590000000     0.336400000000     1.3545     
Fe2      Fe     0.281420000000     0.467900000000     0.336220000000     1.35171    
Fe3      Fe     0.381160000000     0.467740000000     0.332500000000     1.35157    
Fe4      Fe     0.415110000000     0.235530000000     0.083990000000     1.36712    
Fe5      Fe     0.514390000000     0.234020000000     0.085870000000     1.34971    
Fe6      Fe     0.515670000000     0.335250000000     0.085280000000     1.35799    
Fe7      Fe     0.282230000000     0.367590000000     0.836400000000     1.3545     
Fe8      Fe     0.281420000000     0.467900000000     0.836220000000     1.35171    
Fe9      Fe     0.381160000000     0.467740000000     0.832500000000     1.35157    
Fe10     Fe     0.415110000000     0.235530000000     0.583990000000     1.36712    
Fe11     Fe     0.514390000000     0.234020000000     0.585870000000     1.34963    
Fe12     Fe     0.515670000000     0.335250000000     0.585280000000     1.35793    
Fe13     Fe     0.282230000000     0.867590000000     0.336400000000     1.35432    
Fe14     Fe     0.281420000000     0.967900000000     0.336220000000     1.35187    
Fe15     Fe     0.381160000000     0.967740000000     0.332500000000     1.35166    
Fe16     Fe     0.415110000000     0.735530000000     0.083990000000     1.36702    
Fe17     Fe     0.514390000000     0.734020000000     0.085870000000     1.34953    
Fe18     Fe     0.515670000000     0.835250000000     0.085280000000     1.35817    
Fe19     Fe     0.282230000000     0.867590000000     0.836400000000     1.35432    
Fe20     Fe     0.281420000000     0.967900000000     0.836220000000     1.35187    
Fe21     Fe     0.381160000000     0.967740000000     0.832500000000     1.35167    
Fe22     Fe     0.415110000000     0.735530000000     0.583990000000     1.36703    
Fe23     Fe     0.514390000000     0.734020000000     0.585870000000     1.34945    
Fe24     Fe     0.515670000000     0.835250000000     0.585280000000     1.3581     
Fe25     Fe     0.782230000000     0.367590000000     0.336400000000     1.35463    
Fe26     Fe     0.781420000000     0.467900000000     0.336220000000     1.35187    
Fe27     Fe     0.881160000000     0.467740000000     0.332500000000     1.35185    
Fe28     Fe     0.915110000000     0.235530000000     0.083990000000     1.36623    
Fe29     Fe     0.014390000000     0.234020000000     0.085870000000     1.3424     
Fe30     Fe     0.015670000000     0.335250000000     0.085280000000     1.35068    
Fe31     Fe     0.782230000000     0.367590000000     0.836400000000     1.35463    
Fe32     Fe     0.781420000000     0.467900000000     0.836220000000     1.35187    
Fe33     Fe     0.881160000000     0.467740000000     0.832500000000     1.35185    
Fe34     Fe     0.915110000000     0.235530000000     0.583990000000     1.36624    
Fe35     Fe     0.014390000000     0.234020000000     0.585870000000     1.34232    
Fe36     Fe     0.015670000000     0.335250000000     0.585280000000     1.35062    
Fe37     Fe     0.782230000000     0.867590000000     0.336400000000     1.35445    
Fe38     Fe     0.781420000000     0.967900000000     0.336220000000     1.35203    
Fe39     Fe     0.881160000000     0.967740000000     0.332500000000     1.35193    
Fe40     Fe     0.915110000000     0.735530000000     0.083990000000     1.36614    
Fe41     Fe     0.014390000000     0.734020000000     0.085870000000     1.34222    
Fe42     Fe     0.015670000000     0.835250000000     0.085280000000     1.35085    
Fe43     Fe     0.782230000000     0.867590000000     0.836400000000     1.35445    
Fe44     Fe     0.781420000000     0.967900000000     0.836220000000     1.35203    
Fe45     Fe     0.881160000000     0.967740000000     0.832500000000     1.35193    
Fe46     Fe     0.915110000000     0.735530000000     0.583990000000     1.36614    
Fe47     Fe     0.014390000000     0.734020000000     0.585870000000     1.34214    
Fe48     Fe     0.015670000000     0.835250000000     0.585280000000     1.35079    
H1       H      0.190950000000     0.304200000000     0.938480000000     0.032246   
H2       H      0.129210000000     0.272800000000     0.998600000000     0.0336266  
H3       H      0.601050000000     0.403120000000     0.480680000000     0.0454023  
H4       H      0.179080000000     0.452990000000     0.383250000000     0.0907812  
H5       H      0.640420000000     0.461550000000     0.422970000000     0.0841386  
H6       H      0.609450000000     0.399560000000     0.185540000000     0.033333   
H7       H      0.170470000000     0.430720000000     0.246130000000     0.034385   
H8       H      0.189960000000     0.294330000000     0.234730000000     0.0408367  
H9       H      0.613420000000     0.244020000000     0.136610000000     0.0916578  
H10      H      0.649580000000     0.234500000000     0.178030000000     0.0838202  
H11      H      0.443750000000     0.562230000000     0.235590000000     0.0329683  
H12      H      0.475070000000     0.123090000000     0.175010000000     0.0348311  
H13      H      0.343780000000     0.149460000000     0.189230000000     0.0452765  
H14      H      0.292200000000     0.570620000000     0.286640000000     0.0914886  
H15      H      0.284040000000     0.609000000000     0.246190000000     0.0847293  
H16      H      0.320490000000     0.078080000000     0.423550000000     0.0336125  
H17      H      0.351570000000     0.143030000000     0.481460000000     0.0340195  
H18      H      0.482900000000     0.119180000000     0.003190000000     0.039816   
H19      H      0.419370000000     0.491520000000     0.950770000000     0.114268   
H20      H      0.477030000000     0.540390000000     0.977250000000     0.086213   
H21      H      0.309020000000     0.296220000000     0.431460000000     0.0309884  
H22      H      0.339800000000     0.261620000000     0.488280000000     0.030159   
H23      H      0.491570000000     0.403010000000     0.986010000000     0.043134   
H24      H      0.465960000000     0.468640000000     0.397840000000     0.102277   
H25      H      0.511320000000     0.467060000000     0.933780000000     0.0825051  
H26      H      0.454970000000     0.443100000000     0.239130000000     0.0289206  
H27      H      0.491290000000     0.411270000000     0.183910000000     0.0315615  
H28      H      0.342660000000     0.266580000000     0.173420000000     0.0447355  
H29      H      0.272910000000     0.299760000000     0.252660000000     0.108779   
H30      H      0.271930000000     0.252330000000     0.216770000000     0.0834264  
H31      H      0.190950000000     0.304200000000     0.438480000000     0.0322432  
H32      H      0.129210000000     0.272800000000     0.498600000000     0.0336128  
H33      H      0.601050000000     0.403120000000     0.980680000000     0.045413   
H34      H      0.179080000000     0.452990000000     0.883240000000     0.0907285  
H35      H      0.640420000000     0.461550000000     0.922970000000     0.0841345  
H36      H      0.609450000000     0.399560000000     0.685540000000     0.0333389  
H37      H      0.170470000000     0.430720000000     0.746130000000     0.0343872  
H38      H      0.189960000000     0.294330000000     0.734740000000     0.0408378  
H39      H      0.613420000000     0.244020000000     0.636610000000     0.0916609  
H40      H      0.649580000000     0.234500000000     0.678030000000     0.0838237  
H41      H      0.443750000000     0.562230000000     0.735590000000     0.0329629  
H42      H      0.475070000000     0.123090000000     0.675010000000     0.034831   
H43      H      0.343780000000     0.149460000000     0.689230000000     0.0452645  
H44      H      0.292200000000     0.570620000000     0.786640000000     0.0914856  
H45      H      0.284040000000     0.609000000000     0.746190000000     0.0847288  
H46      H      0.320490000000     0.078080000000     0.923550000000     0.0336151  
H47      H      0.351570000000     0.143030000000     0.981460000000     0.03403    
H48      H      0.482900000000     0.119180000000     0.503190000000     0.0398647  
H49      H      0.419370000000     0.491520000000     0.450760000000     0.114257   
H50      H      0.477030000000     0.540390000000     0.477250000000     0.086203   
H51      H      0.309020000000     0.296220000000     0.931460000000     0.030989   
H52      H      0.339800000000     0.261620000000     0.988280000000     0.0301742  
H53      H      0.491570000000     0.403010000000     0.486020000000     0.0431167  
H54      H      0.465960000000     0.468640000000     0.897840000000     0.102281   
H55      H      0.511320000000     0.467060000000     0.433790000000     0.0824822  
H56      H      0.454970000000     0.443100000000     0.739120000000     0.0289165  
H57      H      0.491290000000     0.411270000000     0.683910000000     0.031567   
H58      H      0.342660000000     0.266580000000     0.673420000000     0.0447341  
H59      H      0.272910000000     0.299760000000     0.752660000000     0.108778   
H60      H      0.271930000000     0.252330000000     0.716770000000     0.0834309  
H61      H      0.190950000000     0.804200000000     0.938480000000     0.0322421  
H62      H      0.129210000000     0.772800000000     0.998600000000     0.033629   
H63      H      0.601050000000     0.903120000000     0.480680000000     0.0453982  
H64      H      0.179080000000     0.952990000000     0.383250000000     0.0907601  
H65      H      0.640420000000     0.961550000000     0.422970000000     0.0841317  
H66      H      0.609450000000     0.899560000000     0.185540000000     0.0333357  
H67      H      0.170470000000     0.930720000000     0.246130000000     0.0343739  
H68      H      0.189960000000     0.794330000000     0.234730000000     0.0408389  
H69      H      0.613410000000     0.744020000000     0.136610000000     0.0916431  
H70      H      0.649580000000     0.734500000000     0.178030000000     0.0838178  
H71      H      0.443750000000     0.062230000000     0.235590000000     0.0329793  
H72      H      0.475070000000     0.623090000000     0.175010000000     0.0348312  
H73      H      0.343780000000     0.649460000000     0.189230000000     0.045279   
H74      H      0.292200000000     0.070620000000     0.286640000000     0.0914946  
H75      H      0.284040000000     0.109000000000     0.246190000000     0.084734   
H76      H      0.320490000000     0.578080000000     0.423550000000     0.0336175  
H77      H      0.351570000000     0.643030000000     0.481460000000     0.0340013  
H78      H      0.482900000000     0.619180000000     0.003190000000     0.0398264  
H79      H      0.419370000000     0.991520000000     0.950770000000     0.114249   
H80      H      0.477030000000     0.040390000000     0.977250000000     0.0862184  
H81      H      0.309020000000     0.796220000000     0.431460000000     0.030989   
H82      H      0.339800000000     0.761620000000     0.488280000000     0.0301571  
H83      H      0.491570000000     0.903010000000     0.986010000000     0.0431302  
H84      H      0.465960000000     0.968640000000     0.397840000000     0.102272   
H85      H      0.511320000000     0.967060000000     0.933780000000     0.0824986  
H86      H      0.454970000000     0.943100000000     0.239130000000     0.0289227  
H87      H      0.491290000000     0.911270000000     0.183910000000     0.0315386  
H88      H      0.342660000000     0.766580000000     0.173420000000     0.0447339  
H89      H      0.272910000000     0.799760000000     0.252660000000     0.108783   
H90      H      0.271930000000     0.752330000000     0.216770000000     0.0834257  
H91      H      0.190950000000     0.804200000000     0.438480000000     0.0322393  
H92      H      0.129210000000     0.772800000000     0.498600000000     0.0336152  
H93      H      0.601050000000     0.903120000000     0.980680000000     0.045409   
H94      H      0.179080000000     0.952990000000     0.883240000000     0.0907074  
H95      H      0.640420000000     0.961550000000     0.922970000000     0.0841276  
H96      H      0.609450000000     0.899560000000     0.685540000000     0.0333417  
H97      H      0.170470000000     0.930720000000     0.746130000000     0.0343761  
H98      H      0.189960000000     0.794330000000     0.734740000000     0.0408401  
H99      H      0.613410000000     0.744020000000     0.636610000000     0.0916461  
H100     H      0.649580000000     0.734500000000     0.678030000000     0.0838213  
H101     H      0.443750000000     0.062230000000     0.735590000000     0.0329738  
H102     H      0.475070000000     0.623090000000     0.675010000000     0.0348312  
H103     H      0.343780000000     0.649460000000     0.689230000000     0.0452669  
H104     H      0.292200000000     0.070620000000     0.786640000000     0.0914916  
H105     H      0.284040000000     0.109000000000     0.746190000000     0.0847335  
H106     H      0.320490000000     0.578080000000     0.923550000000     0.03362    
H107     H      0.351570000000     0.643030000000     0.981460000000     0.0340118  
H108     H      0.482900000000     0.619180000000     0.503190000000     0.0398751  
H109     H      0.419370000000     0.991520000000     0.450760000000     0.114238   
H110     H      0.477030000000     0.040390000000     0.477250000000     0.0862084  
H111     H      0.309020000000     0.796220000000     0.931460000000     0.0309896  
H112     H      0.339800000000     0.761620000000     0.988280000000     0.0301723  
H113     H      0.491570000000     0.903010000000     0.486020000000     0.0431129  
H114     H      0.465960000000     0.968640000000     0.897840000000     0.102275   
H115     H      0.511320000000     0.967060000000     0.433790000000     0.0824757  
H116     H      0.454970000000     0.943100000000     0.739120000000     0.0289186  
H117     H      0.491290000000     0.911270000000     0.683910000000     0.0315441  
H118     H      0.342660000000     0.766580000000     0.673420000000     0.0447325  
H119     H      0.272910000000     0.799760000000     0.752660000000     0.108783   
H120     H      0.271930000000     0.752330000000     0.716770000000     0.0834302  
H121     H      0.690950000000     0.304200000000     0.938480000000     0.0324091  
H122     H      0.629210000000     0.272800000000     0.998600000000     0.0339567  
H123     H      0.101050000000     0.403120000000     0.480680000000     0.0449794  
H124     H      0.679090000000     0.452990000000     0.383250000000     0.090989   
H125     H      0.140420000000     0.461550000000     0.422970000000     0.0837286  
H126     H      0.109450000000     0.399560000000     0.185540000000     0.0328362  
H127     H      0.670470000000     0.430720000000     0.246130000000     0.0346001  
H128     H      0.689960000000     0.294330000000     0.234730000000     0.0409765  
H129     H      0.113420000000     0.244020000000     0.136610000000     0.0914046  
H130     H      0.149580000000     0.234500000000     0.178030000000     0.0834682  
H131     H      0.943750000000     0.562230000000     0.235590000000     0.0333057  
H132     H      0.975070000000     0.123090000000     0.175010000000     0.0354866  
H133     H      0.843780000000     0.149460000000     0.189230000000     0.0454042  
H134     H      0.792200000000     0.570620000000     0.286640000000     0.0916212  
H135     H      0.784040000000     0.609000000000     0.246190000000     0.0849209  
H136     H      0.820480000000     0.078080000000     0.423550000000     0.0336734  
H137     H      0.851570000000     0.143030000000     0.481460000000     0.0341469  
H138     H      0.982900000000     0.119180000000     0.003190000000     0.0404227  
H139     H      0.919370000000     0.491520000000     0.950770000000     0.114397   
H140     H      0.977030000000     0.540390000000     0.977250000000     0.0868575  
H141     H      0.809020000000     0.296220000000     0.431460000000     0.0310959  
H142     H      0.839800000000     0.261620000000     0.488280000000     0.0302503  
H143     H      0.991570000000     0.403010000000     0.986010000000     0.0441015  
H144     H      0.965960000000     0.468640000000     0.397840000000     0.102566   
H145     H      0.011320000000     0.467060000000     0.933780000000     0.0798379  
H146     H      0.954970000000     0.443100000000     0.239130000000     0.0293196  
H147     H      0.991290000000     0.411270000000     0.183910000000     0.0322783  
H148     H      0.842660000000     0.266580000000     0.173420000000     0.0448182  
H149     H      0.772910000000     0.299760000000     0.252660000000     0.108867   
H150     H      0.771930000000     0.252330000000     0.216770000000     0.0835821  
H151     H      0.690950000000     0.304200000000     0.438480000000     0.0324063  
H152     H      0.629210000000     0.272800000000     0.498600000000     0.033943   
H153     H      0.101050000000     0.403120000000     0.980680000000     0.0449902  
H154     H      0.679090000000     0.452990000000     0.883240000000     0.0909363  
H155     H      0.140420000000     0.461550000000     0.922970000000     0.0837246  
H156     H      0.109450000000     0.399560000000     0.685540000000     0.0328422  
H157     H      0.670470000000     0.430720000000     0.746130000000     0.0346022  
H158     H      0.689960000000     0.294330000000     0.734740000000     0.0409777  
H159     H      0.113420000000     0.244020000000     0.636610000000     0.0914077  
H160     H      0.149580000000     0.234500000000     0.678030000000     0.0834717  
H161     H      0.943750000000     0.562230000000     0.735590000000     0.0333002  
H162     H      0.975070000000     0.123090000000     0.675010000000     0.0354865  
H163     H      0.843780000000     0.149460000000     0.689230000000     0.0453921  
H164     H      0.792200000000     0.570620000000     0.786640000000     0.0916182  
H165     H      0.784040000000     0.609000000000     0.746190000000     0.0849204  
H166     H      0.820480000000     0.078080000000     0.923550000000     0.033676   
H167     H      0.851570000000     0.143030000000     0.981460000000     0.0341574  
H168     H      0.982900000000     0.119180000000     0.503190000000     0.0404713  
H169     H      0.919370000000     0.491520000000     0.450760000000     0.114386   
H170     H      0.977030000000     0.540390000000     0.477250000000     0.0868476  
H171     H      0.809020000000     0.296220000000     0.931460000000     0.0310964  
H172     H      0.839800000000     0.261620000000     0.988280000000     0.0302654  
H173     H      0.991570000000     0.403010000000     0.486020000000     0.0440843  
H174     H      0.965960000000     0.468640000000     0.897840000000     0.10257    
H175     H      0.011320000000     0.467060000000     0.433790000000     0.0798149  
H176     H      0.954970000000     0.443100000000     0.739120000000     0.0293154  
H177     H      0.991290000000     0.411270000000     0.683910000000     0.0322837  
H178     H      0.842660000000     0.266580000000     0.673420000000     0.0448168  
H179     H      0.772910000000     0.299760000000     0.752660000000     0.108867   
H180     H      0.771930000000     0.252330000000     0.716770000000     0.0835866  
H181     H      0.690950000000     0.804200000000     0.938480000000     0.0324052  
H182     H      0.629210000000     0.772800000000     0.998600000000     0.0339592  
H183     H      0.101050000000     0.903120000000     0.480680000000     0.0449755  
H184     H      0.679090000000     0.952990000000     0.383250000000     0.0909688  
H185     H      0.140420000000     0.961550000000     0.422970000000     0.0837218  
H186     H      0.109450000000     0.899560000000     0.185540000000     0.032839   
H187     H      0.670470000000     0.930720000000     0.246130000000     0.0345913  
H188     H      0.689960000000     0.794330000000     0.234730000000     0.0409789  
H189     H      0.113410000000     0.744020000000     0.136610000000     0.0913897  
H190     H      0.149580000000     0.734500000000     0.178030000000     0.0834657  
H191     H      0.943750000000     0.062230000000     0.235590000000     0.033318   
H192     H      0.975070000000     0.623090000000     0.175010000000     0.035485   
H193     H      0.843780000000     0.649460000000     0.189230000000     0.0453725  
H194     H      0.792200000000     0.070620000000     0.286640000000     0.0916285  
H195     H      0.784040000000     0.109000000000     0.246190000000     0.0849241  
H196     H      0.820490000000     0.578080000000     0.423550000000     0.0336926  
H197     H      0.851570000000     0.643030000000     0.481460000000     0.0341356  
H198     H      0.982900000000     0.619180000000     0.003190000000     0.0404255  
H199     H      0.919370000000     0.991520000000     0.950770000000     0.114376   
H200     H      0.977030000000     0.040390000000     0.977250000000     0.0868624  
H201     H      0.809020000000     0.796220000000     0.431460000000     0.0310918  
H202     H      0.839800000000     0.761620000000     0.488280000000     0.0302532  
H203     H      0.991570000000     0.903010000000     0.986010000000     0.0440975  
H204     H      0.965960000000     0.968640000000     0.397840000000     0.10256    
H205     H      0.011320000000     0.967060000000     0.933780000000     0.0798328  
H206     H      0.954970000000     0.943100000000     0.239130000000     0.0293254  
H207     H      0.991290000000     0.911270000000     0.183910000000     0.0322507  
H208     H      0.842660000000     0.766580000000     0.173420000000     0.0448163  
H209     H      0.772910000000     0.799760000000     0.252660000000     0.108871   
H210     H      0.771930000000     0.752330000000     0.216770000000     0.0835813  
H211     H      0.690950000000     0.804200000000     0.438480000000     0.0324024  
H212     H      0.629210000000     0.772800000000     0.498600000000     0.0339455  
H213     H      0.101050000000     0.903120000000     0.980680000000     0.0449864  
H214     H      0.679090000000     0.952990000000     0.883240000000     0.0909162  
H215     H      0.140420000000     0.961550000000     0.922970000000     0.0837177  
H216     H      0.109450000000     0.899560000000     0.685540000000     0.032845   
H217     H      0.670470000000     0.930720000000     0.746130000000     0.0345935  
H218     H      0.689960000000     0.794330000000     0.734740000000     0.0409801  
H219     H      0.113410000000     0.744020000000     0.636610000000     0.0913928  
H220     H      0.149580000000     0.734500000000     0.678030000000     0.0834693  
H221     H      0.943750000000     0.062230000000     0.735590000000     0.0333125  
H222     H      0.975070000000     0.623090000000     0.675010000000     0.035485   
H223     H      0.843780000000     0.649460000000     0.689230000000     0.0453605  
H224     H      0.792200000000     0.070620000000     0.786640000000     0.0916255  
H225     H      0.784040000000     0.109000000000     0.746190000000     0.0849236  
H226     H      0.820490000000     0.578080000000     0.923550000000     0.0336951  
H227     H      0.851570000000     0.643030000000     0.981460000000     0.0341461  
H228     H      0.982900000000     0.619180000000     0.503190000000     0.0404741  
H229     H      0.919370000000     0.991520000000     0.450760000000     0.114365   
H230     H      0.977030000000     0.040390000000     0.477250000000     0.0868526  
H231     H      0.809020000000     0.796220000000     0.931460000000     0.0310924  
H232     H      0.839800000000     0.761620000000     0.988280000000     0.0302684  
H233     H      0.991570000000     0.903010000000     0.486020000000     0.0440803  
H234     H      0.965960000000     0.968640000000     0.897840000000     0.102564   
H235     H      0.011320000000     0.967060000000     0.433790000000     0.0798098  
H236     H      0.954970000000     0.943100000000     0.739120000000     0.0293213  
H237     H      0.991290000000     0.911270000000     0.683910000000     0.0322562  
H238     H      0.842660000000     0.766580000000     0.673420000000     0.044815   
H239     H      0.772910000000     0.799760000000     0.752660000000     0.108871   
H240     H      0.771930000000     0.752330000000     0.716770000000     0.0835858  
N1       N      0.611260000000     0.336170000000     0.994390000000    -0.190609   
N2       N      0.183020000000     0.372880000000     0.425420000000    -0.218148   
N3       N      0.660470000000     0.441590000000     0.413350000000    -0.210795   
N4       N      0.184400000000     0.364520000000     0.245120000000    -0.190701   
N5       N      0.613290000000     0.328060000000     0.175320000000    -0.215407   
N6       N      0.631460000000     0.255770000000     0.166900000000    -0.210314   
N7       N      0.411150000000     0.140020000000     0.177300000000    -0.190448   
N8       N      0.374340000000     0.568890000000     0.246990000000    -0.216895   
N9       N      0.304300000000     0.589580000000     0.256680000000    -0.210769   
N10      N      0.420690000000     0.137090000000     0.994850000000    -0.19219    
N11      N      0.381900000000     0.557600000000     0.431110000000    -0.213832   
N12      N      0.443110000000     0.531550000000     0.959180000000    -0.21359    
N13      N      0.417530000000     0.330600000000     0.991560000000    -0.19267    
N14      N      0.383130000000     0.369910000000     0.423540000000    -0.21371    
N15      N      0.472490000000     0.447130000000     0.921580000000    -0.213365   
N16      N      0.419350000000     0.336700000000     0.174760000000    -0.191432   
N17      N      0.377750000000     0.372310000000     0.239960000000    -0.21412    
N18      N      0.294330000000     0.289690000000     0.231620000000    -0.214693   
N19      N      0.611260000000     0.336170000000     0.494390000000    -0.190633   
N20      N      0.183020000000     0.372880000000     0.925420000000    -0.218145   
N21      N      0.660470000000     0.441590000000     0.913350000000    -0.210746   
N22      N      0.184400000000     0.364520000000     0.745120000000    -0.190702   
N23      N      0.613290000000     0.328060000000     0.675320000000    -0.215425   
N24      N      0.631460000000     0.255770000000     0.666900000000    -0.210315   
N25      N      0.411150000000     0.140020000000     0.677300000000    -0.190438   
N26      N      0.374340000000     0.568890000000     0.746990000000    -0.21686    
N27      N      0.304300000000     0.589580000000     0.756680000000    -0.210763   
N28      N      0.420690000000     0.137090000000     0.494850000000    -0.192196   
N29      N      0.381900000000     0.557600000000     0.931110000000    -0.21383    
N30      N      0.443110000000     0.531550000000     0.459180000000    -0.213582   
N31      N      0.417530000000     0.330600000000     0.491560000000    -0.19274    
N32      N      0.383130000000     0.369910000000     0.923540000000    -0.213713   
N33      N      0.472490000000     0.447130000000     0.421580000000    -0.213346   
N34      N      0.419350000000     0.336700000000     0.674750000000    -0.191485   
N35      N      0.377750000000     0.372310000000     0.739950000000    -0.214092   
N36      N      0.294330000000     0.289690000000     0.731620000000    -0.214708   
N37      N      0.611260000000     0.836170000000     0.994390000000    -0.190608   
N38      N      0.183020000000     0.872880000000     0.425420000000    -0.218186   
N39      N      0.660470000000     0.941590000000     0.413350000000    -0.210798   
N40      N      0.184400000000     0.864520000000     0.245120000000    -0.190707   
N41      N      0.613290000000     0.828060000000     0.175320000000    -0.215417   
N42      N      0.631460000000     0.755770000000     0.166900000000    -0.210283   
N43      N      0.411150000000     0.640020000000     0.177300000000    -0.190444   
N44      N      0.374340000000     0.068890000000     0.246990000000    -0.216873   
N45      N      0.304300000000     0.089580000000     0.256680000000    -0.210786   
N46      N      0.420680000000     0.637090000000     0.994850000000    -0.192202   
N47      N      0.381910000000     0.057610000000     0.431110000000    -0.213816   
N48      N      0.443110000000     0.031550000000     0.959180000000    -0.213576   
N49      N      0.417530000000     0.830600000000     0.991560000000    -0.192674   
N50      N      0.383130000000     0.869910000000     0.423540000000    -0.213709   
N51      N      0.472490000000     0.947130000000     0.921580000000    -0.213365   
N52      N      0.419350000000     0.836700000000     0.174760000000    -0.191451   
N53      N      0.377750000000     0.872310000000     0.239960000000    -0.21408    
N54      N      0.294330000000     0.789690000000     0.231620000000    -0.214689   
N55      N      0.611260000000     0.836170000000     0.494390000000    -0.190632   
N56      N      0.183020000000     0.872880000000     0.925420000000    -0.218182   
N57      N      0.660470000000     0.941590000000     0.913350000000    -0.210749   
N58      N      0.184400000000     0.864520000000     0.745120000000    -0.190708   
N59      N      0.613290000000     0.828060000000     0.675320000000    -0.215435   
N60      N      0.631460000000     0.755770000000     0.666900000000    -0.210284   
N61      N      0.411150000000     0.640020000000     0.677300000000    -0.190434   
N62      N      0.374340000000     0.068890000000     0.746990000000    -0.216838   
N63      N      0.304300000000     0.089580000000     0.756680000000    -0.210781   
N64      N      0.420680000000     0.637090000000     0.494850000000    -0.192208   
N65      N      0.381910000000     0.057610000000     0.931110000000    -0.213814   
N66      N      0.443110000000     0.031550000000     0.459180000000    -0.213569   
N67      N      0.417530000000     0.830600000000     0.491560000000    -0.192743   
N68      N      0.383130000000     0.869910000000     0.923540000000    -0.213712   
N69      N      0.472490000000     0.947130000000     0.421580000000    -0.213346   
N70      N      0.419350000000     0.836700000000     0.674750000000    -0.191504   
N71      N      0.377750000000     0.872310000000     0.739950000000    -0.214051   
N72      N      0.294330000000     0.789690000000     0.731620000000    -0.214705   
N73      N      0.111260000000     0.336170000000     0.994390000000    -0.190592   
N74      N      0.683020000000     0.372880000000     0.425420000000    -0.218121   
N75      N      0.160470000000     0.441590000000     0.413350000000    -0.210821   
N76      N      0.684400000000     0.364520000000     0.245120000000    -0.190678   
N77      N      0.113290000000     0.328060000000     0.175320000000    -0.215366   
N78      N      0.131460000000     0.255770000000     0.166900000000    -0.210351   
N79      N      0.911150000000     0.140020000000     0.177300000000    -0.190206   
N80      N      0.874340000000     0.568890000000     0.246990000000    -0.216886   
N81      N      0.804300000000     0.589580000000     0.256680000000    -0.210789   
N82      N      0.920690000000     0.137090000000     0.994850000000    -0.191927   
N83      N      0.881900000000     0.557600000000     0.431110000000    -0.21383    
N84      N      0.943110000000     0.531550000000     0.959180000000    -0.213575   
N85      N      0.917530000000     0.330600000000     0.991560000000    -0.192479   
N86      N      0.883130000000     0.369910000000     0.423540000000    -0.213663   
N87      N      0.972490000000     0.447130000000     0.921580000000    -0.211596   
N88      N      0.919350000000     0.336700000000     0.174760000000    -0.191177   
N89      N      0.877750000000     0.372310000000     0.239960000000    -0.214102   
N90      N      0.794330000000     0.289690000000     0.231620000000    -0.214702   
N91      N      0.111260000000     0.336170000000     0.494390000000    -0.190616   
N92      N      0.683020000000     0.372880000000     0.925420000000    -0.218118   
N93      N      0.160470000000     0.441590000000     0.913350000000    -0.210772   
N94      N      0.684400000000     0.364520000000     0.745120000000    -0.190679   
N95      N      0.113290000000     0.328060000000     0.675320000000    -0.215384   
N96      N      0.131460000000     0.255770000000     0.666900000000    -0.210352   
N97      N      0.911150000000     0.140020000000     0.677300000000    -0.190196   
N98      N      0.874340000000     0.568890000000     0.746990000000    -0.21685    
N99      N      0.804300000000     0.589580000000     0.756680000000    -0.210783   
N100     N      0.920690000000     0.137090000000     0.494850000000    -0.191933   
N101     N      0.881900000000     0.557600000000     0.931110000000    -0.213828   
N102     N      0.943110000000     0.531550000000     0.459180000000    -0.213568   
N103     N      0.917530000000     0.330600000000     0.491560000000    -0.192548   
N104     N      0.883130000000     0.369910000000     0.923540000000    -0.213665   
N105     N      0.972490000000     0.447130000000     0.421580000000    -0.211577   
N106     N      0.919350000000     0.336700000000     0.674750000000    -0.191229   
N107     N      0.877750000000     0.372310000000     0.739950000000    -0.214074   
N108     N      0.794330000000     0.289690000000     0.731620000000    -0.214717   
N109     N      0.111260000000     0.836170000000     0.994390000000    -0.190591   
N110     N      0.683020000000     0.872880000000     0.425420000000    -0.218159   
N111     N      0.160470000000     0.941590000000     0.413350000000    -0.210824   
N112     N      0.684400000000     0.864520000000     0.245120000000    -0.190684   
N113     N      0.113290000000     0.828060000000     0.175320000000    -0.215376   
N114     N      0.131460000000     0.755770000000     0.166900000000    -0.210319   
N115     N      0.911150000000     0.640020000000     0.177300000000    -0.190221   
N116     N      0.874340000000     0.068890000000     0.246990000000    -0.216873   
N117     N      0.804300000000     0.089580000000     0.256680000000    -0.210773   
N118     N      0.920690000000     0.637090000000     0.994850000000    -0.191935   
N119     N      0.881900000000     0.057610000000     0.431110000000    -0.213808   
N120     N      0.943110000000     0.031550000000     0.959180000000    -0.213555   
N121     N      0.917530000000     0.830600000000     0.991560000000    -0.192479   
N122     N      0.883130000000     0.869910000000     0.423540000000    -0.21367    
N123     N      0.972490000000     0.947130000000     0.921580000000    -0.211597   
N124     N      0.919350000000     0.836700000000     0.174760000000    -0.191203   
N125     N      0.877750000000     0.872310000000     0.239960000000    -0.214059   
N126     N      0.794330000000     0.789690000000     0.231620000000    -0.214699   
N127     N      0.111260000000     0.836170000000     0.494390000000    -0.190615   
N128     N      0.683020000000     0.872880000000     0.925420000000    -0.218155   
N129     N      0.160470000000     0.941590000000     0.913350000000    -0.210774   
N130     N      0.684400000000     0.864520000000     0.745120000000    -0.190684   
N131     N      0.113290000000     0.828060000000     0.675320000000    -0.215394   
N132     N      0.131460000000     0.755770000000     0.666900000000    -0.21032    
N133     N      0.911150000000     0.640020000000     0.677300000000    -0.190211   
N134     N      0.874340000000     0.068890000000     0.746990000000    -0.216837   
N135     N      0.804300000000     0.089580000000     0.756680000000    -0.210767   
N136     N      0.920690000000     0.637090000000     0.494850000000    -0.191941   
N137     N      0.881900000000     0.057610000000     0.931110000000    -0.213806   
N138     N      0.943110000000     0.031550000000     0.459180000000    -0.213547   
N139     N      0.917530000000     0.830600000000     0.491560000000    -0.192548   
N140     N      0.883130000000     0.869910000000     0.923540000000    -0.213672   
N141     N      0.972490000000     0.947130000000     0.421580000000    -0.211578   
N142     N      0.919350000000     0.836700000000     0.674750000000    -0.191255   
N143     N      0.877750000000     0.872310000000     0.739950000000    -0.21403    
N144     N      0.794330000000     0.789690000000     0.731620000000    -0.214714   
O1       O      0.391170000000     0.417760000000     0.361580000000    -0.501253   
O2       O      0.307920000000     0.499200000000     0.284390000000    -0.507253   
O3       O      0.312680000000     0.367530000000     0.387800000000    -0.499649   
O4       O      0.330280000000     0.359790000000     0.302520000000    -0.495732   
O5       O      0.386560000000     0.496860000000     0.385570000000    -0.508875   
O6       O      0.224210000000     0.419510000000     0.303570000000    -0.499135   
O7       O      0.314550000000     0.434430000000     0.334940000000    -0.868778   
O8       O      0.251610000000     0.440020000000     0.388050000000    -0.511913   
O9       O      0.225620000000     0.358160000000     0.369510000000    -0.506061   
O10      O      0.380370000000     0.440810000000     0.279230000000    -0.498565   
O11      O      0.249280000000     0.362620000000     0.285500000000    -0.511716   
O12      O      0.330950000000     0.523640000000     0.369580000000    -0.497315   
O13      O      0.389410000000     0.526790000000     0.303240000000    -0.502691   
O14      O      0.468020000000     0.344270000000     0.052150000000    -0.49865    
O15      O      0.543750000000     0.261390000000     0.138020000000    -0.505666   
O16      O      0.413460000000     0.262690000000     0.031790000000    -0.509388   
O17      O      0.407140000000     0.285030000000     0.115250000000    -0.503734   
O18      O      0.545850000000     0.337720000000     0.033800000000    -0.509955   
O19      O      0.464630000000     0.177120000000     0.117930000000    -0.497965   
O20      O      0.481740000000     0.268200000000     0.084970000000    -0.867328   
O21      O      0.487900000000     0.203190000000     0.033920000000    -0.504735   
O22      O      0.406370000000     0.177970000000     0.052200000000    -0.502203   
O23      O      0.487950000000     0.338620000000     0.136950000000    -0.504422   
O24      O      0.410750000000     0.205460000000     0.136220000000    -0.507858   
O25      O      0.572240000000     0.282650000000     0.053770000000    -0.498145   
O26      O      0.572480000000     0.343340000000     0.117970000000    -0.497998   
O27      O      0.391170000000     0.417760000000     0.861580000000    -0.501248   
O28      O      0.307920000000     0.499200000000     0.784390000000    -0.507305   
O29      O      0.312680000000     0.367530000000     0.887800000000    -0.499632   
O30      O      0.330280000000     0.359790000000     0.802520000000    -0.495726   
O31      O      0.386560000000     0.496860000000     0.885570000000    -0.508854   
O32      O      0.224210000000     0.419510000000     0.803570000000    -0.49914    
O33      O      0.314550000000     0.434430000000     0.834950000000    -0.868781   
O34      O      0.251610000000     0.440020000000     0.888050000000    -0.511891   
O35      O      0.225620000000     0.358160000000     0.869510000000    -0.506054   
O36      O      0.380370000000     0.440810000000     0.779230000000    -0.498554   
O37      O      0.249280000000     0.362620000000     0.785500000000    -0.511732   
O38      O      0.330950000000     0.523640000000     0.869580000000    -0.497314   
O39      O      0.389410000000     0.526790000000     0.803240000000    -0.502788   
O40      O      0.468020000000     0.344270000000     0.552150000000    -0.498541   
O41      O      0.543750000000     0.261390000000     0.638020000000    -0.505696   
O42      O      0.413460000000     0.262690000000     0.531790000000    -0.509335   
O43      O      0.407140000000     0.285030000000     0.615250000000    -0.503741   
O44      O      0.545850000000     0.337720000000     0.533800000000    -0.509952   
O45      O      0.464630000000     0.177120000000     0.617920000000    -0.497924   
O46      O      0.481740000000     0.268200000000     0.584970000000    -0.867313   
O47      O      0.487900000000     0.203190000000     0.533910000000    -0.504628   
O48      O      0.406370000000     0.177970000000     0.552200000000    -0.502194   
O49      O      0.487950000000     0.338620000000     0.636950000000    -0.504427   
O50      O      0.410750000000     0.205460000000     0.636220000000    -0.50782    
O51      O      0.572240000000     0.282650000000     0.553770000000    -0.498147   
O52      O      0.572480000000     0.343340000000     0.617980000000    -0.498019   
O53      O      0.391170000000     0.917760000000     0.361580000000    -0.501278   
O54      O      0.307920000000     0.999200000000     0.284390000000    -0.507276   
O55      O      0.312680000000     0.867530000000     0.387800000000    -0.49963    
O56      O      0.330280000000     0.859790000000     0.302520000000    -0.495661   
O57      O      0.386560000000     0.996860000000     0.385570000000    -0.5089     
O58      O      0.224210000000     0.919510000000     0.303570000000    -0.499084   
O59      O      0.314550000000     0.934440000000     0.334940000000    -0.868776   
O60      O      0.251610000000     0.940010000000     0.388050000000    -0.512119   
O61      O      0.225620000000     0.858160000000     0.369510000000    -0.506001   
O62      O      0.380370000000     0.940820000000     0.279230000000    -0.49847    
O63      O      0.249280000000     0.862620000000     0.285500000000    -0.511774   
O64      O      0.330950000000     0.023640000000     0.369580000000    -0.497318   
O65      O      0.389410000000     0.026780000000     0.303240000000    -0.502704   
O66      O      0.468020000000     0.844270000000     0.052150000000    -0.498669   
O67      O      0.543750000000     0.761390000000     0.138020000000    -0.505649   
O68      O      0.413460000000     0.762690000000     0.031790000000    -0.509389   
O69      O      0.407140000000     0.785030000000     0.115250000000    -0.503715   
O70      O      0.545850000000     0.837720000000     0.033800000000    -0.509977   
O71      O      0.464630000000     0.677120000000     0.117930000000    -0.497942   
O72      O      0.481740000000     0.768210000000     0.084970000000    -0.867315   
O73      O      0.487900000000     0.703190000000     0.033920000000    -0.504736   
O74      O      0.406370000000     0.677960000000     0.052200000000    -0.50217    
O75      O      0.487950000000     0.838620000000     0.136950000000    -0.504441   
O76      O      0.410750000000     0.705460000000     0.136220000000    -0.507846   
O77      O      0.572240000000     0.782650000000     0.053770000000    -0.498122   
O78      O      0.572480000000     0.843340000000     0.117970000000    -0.498022   
O79      O      0.391170000000     0.917760000000     0.861580000000    -0.501273   
O80      O      0.307920000000     0.999200000000     0.784390000000    -0.507328   
O81      O      0.312680000000     0.867530000000     0.887800000000    -0.499613   
O82      O      0.330280000000     0.859790000000     0.802520000000    -0.495655   
O83      O      0.386560000000     0.996860000000     0.885570000000    -0.508879   
O84      O      0.224210000000     0.919510000000     0.803570000000    -0.499089   
O85      O      0.314550000000     0.934440000000     0.834950000000    -0.868779   
O86      O      0.251610000000     0.940010000000     0.888050000000    -0.512097   
O87      O      0.225620000000     0.858160000000     0.869510000000    -0.505993   
O88      O      0.380370000000     0.940820000000     0.779230000000    -0.49846    
O89      O      0.249280000000     0.862620000000     0.785500000000    -0.511791   
O90      O      0.330950000000     0.023640000000     0.869580000000    -0.497317   
O91      O      0.389410000000     0.026780000000     0.803240000000    -0.502801   
O92      O      0.468020000000     0.844270000000     0.552150000000    -0.49856    
O93      O      0.543750000000     0.761390000000     0.638020000000    -0.505678   
O94      O      0.413460000000     0.762690000000     0.531790000000    -0.509337   
O95      O      0.407140000000     0.785030000000     0.615250000000    -0.503722   
O96      O      0.545850000000     0.837720000000     0.533800000000    -0.509974   
O97      O      0.464630000000     0.677120000000     0.617920000000    -0.497901   
O98      O      0.481740000000     0.768210000000     0.584970000000    -0.8673     
O99      O      0.487900000000     0.703190000000     0.533910000000    -0.50463    
O100     O      0.406370000000     0.677960000000     0.552200000000    -0.502161   
O101     O      0.487950000000     0.838620000000     0.636950000000    -0.504446   
O102     O      0.410750000000     0.705460000000     0.636220000000    -0.507807   
O103     O      0.572240000000     0.782650000000     0.553770000000    -0.498124   
O104     O      0.572480000000     0.843340000000     0.617980000000    -0.498043   
O105     O      0.891170000000     0.417760000000     0.361580000000    -0.501104   
O106     O      0.807930000000     0.499200000000     0.284390000000    -0.507356   
O107     O      0.812680000000     0.367530000000     0.387800000000    -0.499634   
O108     O      0.830280000000     0.359790000000     0.302520000000    -0.495666   
O109     O      0.886560000000     0.496860000000     0.385570000000    -0.508799   
O110     O      0.724220000000     0.419510000000     0.303570000000    -0.499155   
O111     O      0.814550000000     0.434430000000     0.334940000000    -0.868897   
O112     O      0.751610000000     0.440020000000     0.388050000000    -0.511944   
O113     O      0.725620000000     0.358160000000     0.369510000000    -0.50592    
O114     O      0.880370000000     0.440810000000     0.279230000000    -0.498485   
O115     O      0.749280000000     0.362620000000     0.285500000000    -0.511718   
O116     O      0.830950000000     0.523640000000     0.369580000000    -0.497286   
O117     O      0.889410000000     0.526790000000     0.303240000000    -0.502533   
O118     O      0.968020000000     0.344270000000     0.052150000000    -0.496312   
O119     O      0.043750000000     0.261390000000     0.138020000000    -0.505653   
O120     O      0.913460000000     0.262690000000     0.031790000000    -0.508802   
O121     O      0.907140000000     0.285030000000     0.115250000000    -0.503212   
O122     O      0.045850000000     0.337720000000     0.033800000000    -0.509888   
O123     O      0.964630000000     0.177120000000     0.117930000000    -0.495647   
O124     O      0.981740000000     0.268200000000     0.084970000000    -0.862636   
O125     O      0.987900000000     0.203190000000     0.033920000000    -0.501912   
O126     O      0.906370000000     0.177970000000     0.052200000000    -0.501684   
O127     O      0.987950000000     0.338620000000     0.136950000000    -0.501607   
O128     O      0.910750000000     0.205460000000     0.136220000000    -0.507284   
O129     O      0.072240000000     0.282650000000     0.053770000000    -0.497511   
O130     O      0.072480000000     0.343340000000     0.117970000000    -0.497372   
O131     O      0.891170000000     0.417760000000     0.861580000000    -0.501099   
O132     O      0.807930000000     0.499200000000     0.784390000000    -0.507408   
O133     O      0.812680000000     0.367530000000     0.887800000000    -0.499618   
O134     O      0.830280000000     0.359790000000     0.802520000000    -0.49566    
O135     O      0.886560000000     0.496860000000     0.885570000000    -0.508779   
O136     O      0.724220000000     0.419510000000     0.803570000000    -0.49916    
O137     O      0.814550000000     0.434430000000     0.834950000000    -0.8689     
O138     O      0.751610000000     0.440020000000     0.888050000000    -0.511922   
O139     O      0.725620000000     0.358160000000     0.869510000000    -0.505913   
O140     O      0.880370000000     0.440810000000     0.779230000000    -0.498474   
O141     O      0.749280000000     0.362620000000     0.785500000000    -0.511734   
O142     O      0.830950000000     0.523640000000     0.869580000000    -0.497285   
O143     O      0.889410000000     0.526790000000     0.803240000000    -0.50263    
O144     O      0.968020000000     0.344270000000     0.552150000000    -0.496203   
O145     O      0.043750000000     0.261390000000     0.638020000000    -0.505683   
O146     O      0.913460000000     0.262690000000     0.531790000000    -0.50875    
O147     O      0.907140000000     0.285030000000     0.615250000000    -0.503219   
O148     O      0.045850000000     0.337720000000     0.533800000000    -0.509884   
O149     O      0.964630000000     0.177120000000     0.617920000000    -0.495605   
O150     O      0.981740000000     0.268200000000     0.584970000000    -0.862621   
O151     O      0.987900000000     0.203190000000     0.533910000000    -0.501806   
O152     O      0.906370000000     0.177970000000     0.552200000000    -0.501675   
O153     O      0.987950000000     0.338620000000     0.636950000000    -0.501611   
O154     O      0.910750000000     0.205460000000     0.636220000000    -0.507245   
O155     O      0.072240000000     0.282650000000     0.553770000000    -0.497512   
O156     O      0.072480000000     0.343340000000     0.617980000000    -0.497394   
O157     O      0.891170000000     0.917760000000     0.361580000000    -0.501128   
O158     O      0.807920000000     0.999200000000     0.284390000000    -0.507281   
O159     O      0.812680000000     0.867530000000     0.387800000000    -0.499616   
O160     O      0.830280000000     0.859790000000     0.302520000000    -0.495595   
O161     O      0.886560000000     0.996860000000     0.385570000000    -0.508825   
O162     O      0.724220000000     0.919510000000     0.303570000000    -0.499098   
O163     O      0.814550000000     0.934440000000     0.334940000000    -0.868899   
O164     O      0.751610000000     0.940010000000     0.388050000000    -0.512147   
O165     O      0.725620000000     0.858160000000     0.369510000000    -0.505859   
O166     O      0.880370000000     0.940820000000     0.279230000000    -0.498391   
O167     O      0.749280000000     0.862620000000     0.285500000000    -0.511777   
O168     O      0.830950000000     0.023640000000     0.369580000000    -0.497284   
O169     O      0.889410000000     0.026780000000     0.303240000000    -0.502506   
O170     O      0.968020000000     0.844270000000     0.052150000000    -0.496332   
O171     O      0.043750000000     0.761390000000     0.138020000000    -0.505636   
O172     O      0.913460000000     0.762690000000     0.031790000000    -0.508804   
O173     O      0.907140000000     0.785030000000     0.115250000000    -0.503194   
O174     O      0.045850000000     0.837720000000     0.033800000000    -0.50991    
O175     O      0.964630000000     0.677120000000     0.117930000000    -0.495624   
O176     O      0.981740000000     0.768210000000     0.084970000000    -0.862624   
O177     O      0.987900000000     0.703190000000     0.033920000000    -0.501909   
O178     O      0.906370000000     0.677960000000     0.052200000000    -0.501653   
O179     O      0.987950000000     0.838620000000     0.136950000000    -0.501627   
O180     O      0.910750000000     0.705460000000     0.136220000000    -0.507274   
O181     O      0.072240000000     0.782650000000     0.053770000000    -0.497488   
O182     O      0.072480000000     0.843340000000     0.117970000000    -0.497396   
O183     O      0.891170000000     0.917760000000     0.861580000000    -0.501123   
O184     O      0.807920000000     0.999200000000     0.784390000000    -0.507333   
O185     O      0.812680000000     0.867530000000     0.887800000000    -0.499599   
O186     O      0.830280000000     0.859790000000     0.802520000000    -0.495589   
O187     O      0.886560000000     0.996860000000     0.885570000000    -0.508805   
O188     O      0.724220000000     0.919510000000     0.803570000000    -0.499104   
O189     O      0.814550000000     0.934440000000     0.834950000000    -0.868902   
O190     O      0.751610000000     0.940010000000     0.888050000000    -0.512125   
O191     O      0.725620000000     0.858160000000     0.869510000000    -0.505852   
O192     O      0.880370000000     0.940820000000     0.779230000000    -0.498381   
O193     O      0.749280000000     0.862620000000     0.785500000000    -0.511794   
O194     O      0.830950000000     0.023640000000     0.869580000000    -0.497283   
O195     O      0.889410000000     0.026780000000     0.803240000000    -0.502602   
O196     O      0.968020000000     0.844270000000     0.552150000000    -0.496223   
O197     O      0.043750000000     0.761390000000     0.638020000000    -0.505666   
O198     O      0.913460000000     0.762690000000     0.531790000000    -0.508752   
O199     O      0.907140000000     0.785030000000     0.615250000000    -0.5032     
O200     O      0.045850000000     0.837720000000     0.533800000000    -0.509906   
O201     O      0.964630000000     0.677120000000     0.617920000000    -0.495583   
O202     O      0.981740000000     0.768210000000     0.584970000000    -0.862609   
O203     O      0.987900000000     0.703190000000     0.533910000000    -0.501803   
O204     O      0.906370000000     0.677960000000     0.552200000000    -0.501644   
O205     O      0.987950000000     0.838620000000     0.636950000000    -0.501632   
O206     O      0.910750000000     0.705460000000     0.636220000000    -0.507235   
O207     O      0.072240000000     0.782650000000     0.553770000000    -0.497489   
O208     O      0.072480000000     0.843340000000     0.617980000000    -0.497418   


