data_structure

_audit_creation_method RASPA-1.0
_audit_creation_date 2023-6-4
_audit_author_name 'Poobodin Mano'

_cell_length_a    28.5193
_cell_length_b    28.7887
_cell_length_c    31.1099
_cell_angle_alpha 90
_cell_angle_beta  90
_cell_angle_gamma 120
_cell_volume      22120.3

_symmetry_cell_setting          triclinic
_symmetry_space_group_name_Hall 'P 1'
_symmetry_space_group_name_H-M  'P 1'
_symmetry_Int_Tables_number     1

_symmetry_equiv_pos_as_xyz 'x,y,z'

loop_
_atom_site_label
_atom_site_type_symbol
_atom_site_fract_x
_atom_site_fract_y
_atom_site_fract_z
_atom_site_charge
C1       C      0.374850000000     0.387840000000     0.385420000000     0.533404   
C2       C      0.382710000000     0.393520000000     0.269550000000     0.540043   
C3       C      0.375020000000     0.530240000000     0.267470000000     0.530539   
C4       C      0.238090000000     0.396110000000     0.384140000000     0.530626   
C5       C      0.236070000000     0.384030000000     0.269460000000     0.535692   
C6       C      0.383080000000     0.532210000000     0.382270000000     0.532948   
C7       C      0.451890000000     0.317050000000     0.135140000000     0.529215   
C8       C      0.445330000000     0.313670000000     0.020190000000     0.537639   
C9       C      0.453940000000     0.177730000000     0.016290000000     0.531936   
C10      C      0.590890000000     0.310940000000     0.134270000000     0.534032   
C11      C      0.593130000000     0.323390000000     0.019660000000     0.534327   
C12      C      0.446240000000     0.174350000000     0.132170000000     0.530857   
C13      C      0.179510000000     0.327030000000     0.432040000000     0.0453731  
C14      C      0.190650000000     0.413540000000     0.438820000000     0.0665409  
C15      C      0.645010000000     0.309950000000     0.967530000000     0.0379493  
C16      C      0.654490000000     0.396330000000     0.973710000000    -0.00442181 
C17      C      0.647850000000     0.437990000000     0.996730000000     0.304818   
C18      C      0.647980000000     0.379620000000     0.183010000000     0.047633   
C19      C      0.139790000000     0.294130000000     0.187970000000     0.0681341  
C20      C      0.682510000000     0.396730000000     0.218470000000     0.0371339  
C21      C      0.176110000000     0.311480000000     0.222690000000    -0.00398996 
C22      C      0.184970000000     0.270400000000     0.244290000000     0.305612   
C23      C      0.459300000000     0.618010000000     0.180950000000     0.0451921  
C24      C      0.379160000000     0.122550000000     0.183860000000     0.0666749  
C25      C      0.442050000000     0.583870000000     0.216650000000     0.0371928  
C26      C      0.360810000000     0.087420000000     0.219020000000    -0.00188402 
C27      C      0.309890000000     0.078130000000     0.239910000000     0.306479   
C28      C      0.449060000000     0.584460000000     0.434770000000     0.0443493  
C29      C      0.369520000000     0.589830000000     0.428540000000     0.0698829  
C30      C      0.467240000000     0.122520000000     0.467590000000     0.036543   
C31      C      0.385560000000     0.124980000000     0.963680000000    -0.00178348 
C32      C      0.349140000000     0.145420000000     0.976090000000     0.304751   
C33      C      0.445110000000     0.396060000000     0.931760000000     0.0459628  
C34      C      0.355400000000     0.326000000000     0.442430000000     0.0668993  
C35      C      0.461780000000     0.378220000000     0.967200000000     0.0368047  
C36      C      0.371800000000     0.307020000000     0.977600000000     0.0043144  
C37      C      0.328340000000     0.263700000000     0.004160000000     0.302969   
C38      C      0.450650000000     0.403260000000     0.220580000000     0.0462488  
C39      C      0.363840000000     0.326520000000     0.217730000000     0.0704601  
C40      C      0.468010000000     0.382290000000     0.187930000000     0.0338992  
C41      C      0.379590000000     0.306990000000     0.182570000000    -0.00249359 
C42      C      0.336930000000     0.256080000000     0.163620000000     0.309482   
C43      C      0.374850000000     0.387840000000     0.885420000000     0.533323   
C44      C      0.382710000000     0.393520000000     0.769550000000     0.540041   
C45      C      0.375020000000     0.530240000000     0.767470000000     0.530543   
C46      C      0.238090000000     0.396110000000     0.884140000000     0.530635   
C47      C      0.236070000000     0.384030000000     0.769460000000     0.535576   
C48      C      0.383080000000     0.532210000000     0.882270000000     0.532952   
C49      C      0.451890000000     0.317050000000     0.635140000000     0.529216   
C50      C      0.445330000000     0.313670000000     0.520190000000     0.537603   
C51      C      0.453940000000     0.177730000000     0.516290000000     0.532017   
C52      C      0.590890000000     0.310940000000     0.634270000000     0.53404    
C53      C      0.593130000000     0.323390000000     0.519650000000     0.53429    
C54      C      0.446240000000     0.174350000000     0.632170000000     0.530863   
C55      C      0.179510000000     0.327030000000     0.932030000000     0.0453934  
C56      C      0.190650000000     0.413540000000     0.938820000000     0.0665572  
C57      C      0.645010000000     0.309950000000     0.467530000000     0.0379475  
C58      C      0.654490000000     0.396330000000     0.473700000000    -0.00439626 
C59      C      0.647850000000     0.437990000000     0.496730000000     0.304743   
C60      C      0.647980000000     0.379620000000     0.683010000000     0.0476374  
C61      C      0.139790000000     0.294130000000     0.687970000000     0.0681413  
C62      C      0.682510000000     0.396730000000     0.718470000000     0.0371247  
C63      C      0.176110000000     0.311480000000     0.722690000000    -0.0040026  
C64      C      0.184970000000     0.270400000000     0.744290000000     0.30565    
C65      C      0.459300000000     0.618010000000     0.680950000000     0.0451953  
C66      C      0.379160000000     0.122550000000     0.683860000000     0.0666761  
C67      C      0.442050000000     0.583870000000     0.716650000000     0.0371927  
C68      C      0.360810000000     0.087420000000     0.719020000000    -0.00188366 
C69      C      0.309890000000     0.078130000000     0.739910000000     0.306478   
C70      C      0.449060000000     0.584460000000     0.934770000000     0.044354   
C71      C      0.369520000000     0.589830000000     0.928540000000     0.0698902  
C72      C      0.467240000000     0.122520000000     0.967590000000     0.0365479  
C73      C      0.385560000000     0.124980000000     0.463680000000    -0.00177765 
C74      C      0.349140000000     0.145420000000     0.476090000000     0.304702   
C75      C      0.445110000000     0.396060000000     0.431760000000     0.0459695  
C76      C      0.355400000000     0.326000000000     0.942430000000     0.0668855  
C77      C      0.461780000000     0.378220000000     0.467200000000     0.0367976  
C78      C      0.371800000000     0.307020000000     0.477600000000     0.00424206 
C79      C      0.328340000000     0.263700000000     0.504160000000     0.303076   
C80      C      0.450650000000     0.403260000000     0.720580000000     0.0462518  
C81      C      0.363840000000     0.326520000000     0.717730000000     0.0704602  
C82      C      0.468010000000     0.382290000000     0.687930000000     0.0338989  
C83      C      0.379590000000     0.306990000000     0.682570000000    -0.00249314 
C84      C      0.336930000000     0.256080000000     0.663620000000     0.309482   
C85      C      0.374850000000     0.887840000000     0.385420000000     0.533334   
C86      C      0.382710000000     0.893520000000     0.269550000000     0.54008    
C87      C      0.375020000000     0.030240000000     0.267470000000     0.530627   
C88      C      0.238090000000     0.896110000000     0.384140000000     0.530623   
C89      C      0.236070000000     0.884030000000     0.269460000000     0.53569    
C90      C      0.383090000000     0.032210000000     0.382270000000     0.53295    
C91      C      0.451890000000     0.817050000000     0.135140000000     0.529257   
C92      C      0.445330000000     0.813670000000     0.020190000000     0.537844   
C93      C      0.453940000000     0.677730000000     0.016290000000     0.531898   
C94      C      0.590890000000     0.810940000000     0.134270000000     0.534038   
C95      C      0.593130000000     0.823390000000     0.019660000000     0.534683   
C96      C      0.446250000000     0.674350000000     0.132170000000     0.531141   
C97      C      0.179510000000     0.827030000000     0.432040000000     0.0453655  
C98      C      0.190650000000     0.913540000000     0.438820000000     0.0665363  
C99      C      0.645010000000     0.809950000000     0.967530000000     0.0379623  
C100     C      0.654490000000     0.896330000000     0.973710000000    -0.00442126 
C101     C      0.647850000000     0.937990000000     0.996730000000     0.304825   
C102     C      0.647980000000     0.879620000000     0.183010000000     0.0476287  
C103     C      0.139790000000     0.794130000000     0.187970000000     0.068146   
C104     C      0.682510000000     0.896730000000     0.218470000000     0.0371307  
C105     C      0.176110000000     0.811480000000     0.222690000000    -0.0039986  
C106     C      0.184970000000     0.770400000000     0.244290000000     0.305612   
C107     C      0.459300000000     0.118010000000     0.180950000000     0.045196   
C108     C      0.379160000000     0.622550000000     0.183860000000     0.066695   
C109     C      0.442050000000     0.083870000000     0.216650000000     0.0372022  
C110     C      0.360810000000     0.587420000000     0.219020000000    -0.00189919 
C111     C      0.309890000000     0.578130000000     0.239910000000     0.306459   
C112     C      0.449060000000     0.084460000000     0.434770000000     0.0443437  
C113     C      0.369520000000     0.089830000000     0.428540000000     0.0698968  
C114     C      0.467240000000     0.622520000000     0.467590000000     0.0365334  
C115     C      0.385560000000     0.624980000000     0.963680000000    -0.00178071 
C116     C      0.349150000000     0.645430000000     0.976090000000     0.304689   
C117     C      0.445110000000     0.896060000000     0.931760000000     0.0459708  
C118     C      0.355400000000     0.826000000000     0.442430000000     0.0668956  
C119     C      0.461790000000     0.878220000000     0.967200000000     0.0367858  
C120     C      0.371800000000     0.807020000000     0.977600000000     0.00431932 
C121     C      0.328340000000     0.763700000000     0.004160000000     0.302987   
C122     C      0.450650000000     0.903270000000     0.220580000000     0.0462244  
C123     C      0.363840000000     0.826520000000     0.217730000000     0.0704603  
C124     C      0.468010000000     0.882290000000     0.187930000000     0.0339249  
C125     C      0.379590000000     0.806990000000     0.182570000000    -0.00249445 
C126     C      0.336930000000     0.756080000000     0.163620000000     0.309499   
C127     C      0.374850000000     0.887840000000     0.885420000000     0.533253   
C128     C      0.382710000000     0.893520000000     0.769550000000     0.540079   
C129     C      0.375020000000     0.030240000000     0.767470000000     0.530632   
C130     C      0.238090000000     0.896110000000     0.884140000000     0.530631   
C131     C      0.236070000000     0.884030000000     0.769460000000     0.535574   
C132     C      0.383090000000     0.032210000000     0.882270000000     0.532954   
C133     C      0.451890000000     0.817050000000     0.635140000000     0.529258   
C134     C      0.445330000000     0.813670000000     0.520190000000     0.537808   
C135     C      0.453940000000     0.677730000000     0.516290000000     0.531979   
C136     C      0.590890000000     0.810940000000     0.634270000000     0.534047   
C137     C      0.593130000000     0.823390000000     0.519650000000     0.534646   
C138     C      0.446250000000     0.674350000000     0.632170000000     0.531147   
C139     C      0.179510000000     0.827030000000     0.932030000000     0.0453858  
C140     C      0.190650000000     0.913540000000     0.938820000000     0.0665527  
C141     C      0.645010000000     0.809950000000     0.467530000000     0.0379604  
C142     C      0.654490000000     0.896330000000     0.473700000000    -0.00439566 
C143     C      0.647850000000     0.937990000000     0.496730000000     0.30475    
C144     C      0.647980000000     0.879620000000     0.683010000000     0.0476332  
C145     C      0.139790000000     0.794130000000     0.687970000000     0.0681532  
C146     C      0.682510000000     0.896730000000     0.718470000000     0.0371216  
C147     C      0.176110000000     0.811480000000     0.722690000000    -0.00401126 
C148     C      0.184970000000     0.770400000000     0.744290000000     0.305649   
C149     C      0.459300000000     0.118010000000     0.680950000000     0.0451987  
C150     C      0.379160000000     0.622550000000     0.683860000000     0.0667012  
C151     C      0.442050000000     0.083870000000     0.716650000000     0.0372026  
C152     C      0.360810000000     0.587420000000     0.719020000000    -0.00190951 
C153     C      0.309890000000     0.578130000000     0.739910000000     0.306492   
C154     C      0.449060000000     0.084460000000     0.934770000000     0.0443483  
C155     C      0.369520000000     0.089830000000     0.928540000000     0.0699041  
C156     C      0.467240000000     0.622520000000     0.967590000000     0.0365383  
C157     C      0.385560000000     0.624980000000     0.463680000000    -0.00177495 
C158     C      0.349150000000     0.645430000000     0.476090000000     0.304641   
C159     C      0.445110000000     0.896060000000     0.431760000000     0.0459774  
C160     C      0.355400000000     0.826000000000     0.942430000000     0.0668819  
C161     C      0.461790000000     0.878220000000     0.467200000000     0.0367788  
C162     C      0.371800000000     0.807020000000     0.477600000000     0.00424697 
C163     C      0.328340000000     0.763700000000     0.504160000000     0.303094   
C164     C      0.450650000000     0.903270000000     0.720580000000     0.0462275  
C165     C      0.363840000000     0.826520000000     0.717730000000     0.0704603  
C166     C      0.468010000000     0.882290000000     0.687930000000     0.0339246  
C167     C      0.379590000000     0.806990000000     0.682570000000    -0.00249398 
C168     C      0.336930000000     0.756080000000     0.663620000000     0.309499   
C169     C      0.874850000000     0.387840000000     0.385420000000     0.533381   
C170     C      0.882710000000     0.393520000000     0.269550000000     0.540055   
C171     C      0.875020000000     0.530240000000     0.267470000000     0.530727   
C172     C      0.738090000000     0.396110000000     0.384140000000     0.530665   
C173     C      0.736070000000     0.384030000000     0.269460000000     0.535719   
C174     C      0.883080000000     0.532210000000     0.382270000000     0.532975   
C175     C      0.951890000000     0.317050000000     0.135140000000     0.530994   
C176     C      0.945330000000     0.313670000000     0.020190000000     0.537621   
C177     C      0.953940000000     0.177730000000     0.016290000000     0.533732   
C178     C      0.090890000000     0.310940000000     0.134270000000     0.533788   
C179     C      0.093130000000     0.323390000000     0.019660000000     0.534086   
C180     C      0.946250000000     0.174350000000     0.132170000000     0.530712   
C181     C      0.679510000000     0.327030000000     0.432040000000     0.0454374  
C182     C      0.690650000000     0.413540000000     0.438820000000     0.0665887  
C183     C      0.145010000000     0.309950000000     0.967530000000     0.0378537  
C184     C      0.154490000000     0.396330000000     0.973710000000    -0.00451223 
C185     C      0.147850000000     0.437990000000     0.996730000000     0.304785   
C186     C      0.147980000000     0.379620000000     0.183010000000     0.0475457  
C187     C      0.639790000000     0.294130000000     0.187970000000     0.0682296  
C188     C      0.182510000000     0.396730000000     0.218470000000     0.0370668  
C189     C      0.676110000000     0.311480000000     0.222690000000    -0.00392351 
C190     C      0.684960000000     0.270400000000     0.244290000000     0.305593   
C191     C      0.959300000000     0.618010000000     0.180950000000     0.0453417  
C192     C      0.879160000000     0.122550000000     0.183860000000     0.0666833  
C193     C      0.942060000000     0.583870000000     0.216650000000     0.0372443  
C194     C      0.860820000000     0.087420000000     0.219020000000    -0.00174613 
C195     C      0.809890000000     0.078130000000     0.239910000000     0.306442   
C196     C      0.949060000000     0.584460000000     0.434770000000     0.0437272  
C197     C      0.869520000000     0.589830000000     0.428540000000     0.0698201  
C198     C      0.967240000000     0.122520000000     0.467590000000     0.0387094  
C199     C      0.885560000000     0.124980000000     0.963680000000    -0.00161075 
C200     C      0.849150000000     0.145420000000     0.976090000000     0.304593   
C201     C      0.945110000000     0.396060000000     0.931760000000     0.0453837  
C202     C      0.855400000000     0.326000000000     0.442430000000     0.0668511  
C203     C      0.961780000000     0.378220000000     0.967200000000     0.0388297  
C204     C      0.871800000000     0.307020000000     0.977600000000     0.0044195  
C205     C      0.828340000000     0.263700000000     0.004160000000     0.302944   
C206     C      0.950650000000     0.403260000000     0.220580000000     0.045624   
C207     C      0.863840000000     0.326520000000     0.217730000000     0.0703962  
C208     C      0.968010000000     0.382290000000     0.187930000000     0.0360603  
C209     C      0.879590000000     0.306990000000     0.182570000000    -0.00232996 
C210     C      0.836930000000     0.256080000000     0.163620000000     0.309433   
C211     C      0.874850000000     0.387840000000     0.885420000000     0.5333     
C212     C      0.882710000000     0.393520000000     0.769550000000     0.540053   
C213     C      0.875020000000     0.530240000000     0.767470000000     0.530731   
C214     C      0.738090000000     0.396110000000     0.884140000000     0.530673   
C215     C      0.736070000000     0.384030000000     0.769460000000     0.535603   
C216     C      0.883080000000     0.532210000000     0.882270000000     0.532979   
C217     C      0.951890000000     0.317050000000     0.635140000000     0.530995   
C218     C      0.945330000000     0.313670000000     0.520190000000     0.537585   
C219     C      0.953940000000     0.177730000000     0.516290000000     0.533814   
C220     C      0.090890000000     0.310940000000     0.634270000000     0.533796   
C221     C      0.093130000000     0.323390000000     0.519650000000     0.534049   
C222     C      0.946250000000     0.174350000000     0.632170000000     0.530718   
C223     C      0.679510000000     0.327030000000     0.932030000000     0.0454577  
C224     C      0.690650000000     0.413540000000     0.938820000000     0.0666051  
C225     C      0.145010000000     0.309950000000     0.467530000000     0.0378519  
C226     C      0.154490000000     0.396330000000     0.473700000000    -0.00448674 
C227     C      0.147850000000     0.437990000000     0.496730000000     0.304709   
C228     C      0.147980000000     0.379620000000     0.683010000000     0.0475501  
C229     C      0.639790000000     0.294130000000     0.687970000000     0.0682368  
C230     C      0.182510000000     0.396730000000     0.718470000000     0.0370576  
C231     C      0.676110000000     0.311480000000     0.722690000000    -0.00393615 
C232     C      0.684960000000     0.270400000000     0.744290000000     0.30563    
C233     C      0.959300000000     0.618010000000     0.680950000000     0.0453449  
C234     C      0.879160000000     0.122550000000     0.683860000000     0.0666845  
C235     C      0.942060000000     0.583870000000     0.716650000000     0.0372443  
C236     C      0.860820000000     0.087420000000     0.719020000000    -0.00174577 
C237     C      0.809890000000     0.078130000000     0.739910000000     0.30644    
C238     C      0.949060000000     0.584460000000     0.934770000000     0.0437319  
C239     C      0.869520000000     0.589830000000     0.928540000000     0.0698275  
C240     C      0.967240000000     0.122520000000     0.967590000000     0.0387141  
C241     C      0.885560000000     0.124980000000     0.463680000000    -0.00160492 
C242     C      0.849150000000     0.145420000000     0.476090000000     0.304544   
C243     C      0.945110000000     0.396060000000     0.431760000000     0.0453902  
C244     C      0.855400000000     0.326000000000     0.942430000000     0.0668374  
C245     C      0.961780000000     0.378220000000     0.467200000000     0.0388229  
C246     C      0.871800000000     0.307020000000     0.477600000000     0.00434733 
C247     C      0.828340000000     0.263700000000     0.504160000000     0.303051   
C248     C      0.950650000000     0.403260000000     0.720580000000     0.0456272  
C249     C      0.863840000000     0.326520000000     0.717730000000     0.0703963  
C250     C      0.968010000000     0.382290000000     0.687930000000     0.0360599  
C251     C      0.879590000000     0.306990000000     0.682570000000    -0.00232952 
C252     C      0.836930000000     0.256080000000     0.663620000000     0.309433   
C253     C      0.874850000000     0.887840000000     0.385420000000     0.533356   
C254     C      0.882710000000     0.893520000000     0.269550000000     0.540054   
C255     C      0.875020000000     0.030240000000     0.267470000000     0.530634   
C256     C      0.738090000000     0.896110000000     0.384140000000     0.53066    
C257     C      0.736070000000     0.884030000000     0.269460000000     0.535711   
C258     C      0.883080000000     0.032210000000     0.382270000000     0.532952   
C259     C      0.951890000000     0.817050000000     0.135140000000     0.531039   
C260     C      0.945330000000     0.813670000000     0.020190000000     0.53783    
C261     C      0.953940000000     0.677730000000     0.016290000000     0.533695   
C262     C      0.090890000000     0.810940000000     0.134270000000     0.533794   
C263     C      0.093130000000     0.823390000000     0.019660000000     0.534441   
C264     C      0.946250000000     0.674350000000     0.132170000000     0.531004   
C265     C      0.679510000000     0.827030000000     0.432040000000     0.0454297  
C266     C      0.690650000000     0.913540000000     0.438820000000     0.0665839  
C267     C      0.145010000000     0.809950000000     0.967530000000     0.0378667  
C268     C      0.154490000000     0.896330000000     0.973710000000    -0.00451155 
C269     C      0.147850000000     0.937990000000     0.996730000000     0.304793   
C270     C      0.147980000000     0.879620000000     0.183010000000     0.0475419  
C271     C      0.639790000000     0.794130000000     0.187970000000     0.0682366  
C272     C      0.182510000000     0.896730000000     0.218470000000     0.0370627  
C273     C      0.676110000000     0.811480000000     0.222690000000    -0.00391753 
C274     C      0.684970000000     0.770400000000     0.244290000000     0.305654   
C275     C      0.959300000000     0.118010000000     0.180950000000     0.0452904  
C276     C      0.879160000000     0.622550000000     0.183860000000     0.0667458  
C277     C      0.942050000000     0.083870000000     0.216650000000     0.0373293  
C278     C      0.860810000000     0.587420000000     0.219020000000    -0.00184813 
C279     C      0.809890000000     0.578130000000     0.239910000000     0.306463   
C280     C      0.949060000000     0.084460000000     0.434770000000     0.0437312  
C281     C      0.869520000000     0.089830000000     0.428540000000     0.0698185  
C282     C      0.967240000000     0.622520000000     0.467590000000     0.0387032  
C283     C      0.885560000000     0.624980000000     0.963680000000    -0.00159462 
C284     C      0.849150000000     0.645430000000     0.976090000000     0.304624   
C285     C      0.945120000000     0.896060000000     0.931760000000     0.0453202  
C286     C      0.855400000000     0.826000000000     0.442430000000     0.0668438  
C287     C      0.961780000000     0.878220000000     0.967200000000     0.038846   
C288     C      0.871800000000     0.807020000000     0.977600000000     0.00442863 
C289     C      0.828340000000     0.763700000000     0.004160000000     0.302961   
C290     C      0.950650000000     0.903270000000     0.220580000000     0.0456015  
C291     C      0.863840000000     0.826520000000     0.217730000000     0.0703878  
C292     C      0.968010000000     0.882290000000     0.187930000000     0.0360744  
C293     C      0.879590000000     0.806990000000     0.182570000000    -0.00229492 
C294     C      0.836930000000     0.756080000000     0.163620000000     0.309334   
C295     C      0.874850000000     0.887840000000     0.885420000000     0.533275   
C296     C      0.882710000000     0.893520000000     0.769550000000     0.540053   
C297     C      0.875020000000     0.030240000000     0.767470000000     0.530639   
C298     C      0.738090000000     0.896110000000     0.884140000000     0.530668   
C299     C      0.736070000000     0.884030000000     0.769460000000     0.535596   
C300     C      0.883080000000     0.032210000000     0.882270000000     0.532956   
C301     C      0.951890000000     0.817050000000     0.635140000000     0.531041   
C302     C      0.945330000000     0.813670000000     0.520190000000     0.537794   
C303     C      0.953940000000     0.677730000000     0.516290000000     0.533777   
C304     C      0.090890000000     0.810940000000     0.634270000000     0.533802   
C305     C      0.093130000000     0.823390000000     0.519650000000     0.534404   
C306     C      0.946250000000     0.674350000000     0.632170000000     0.531009   
C307     C      0.679510000000     0.827030000000     0.932030000000     0.0454501  
C308     C      0.690650000000     0.913540000000     0.938820000000     0.0666003  
C309     C      0.145010000000     0.809950000000     0.467530000000     0.0378648  
C310     C      0.154490000000     0.896330000000     0.473700000000    -0.00448601 
C311     C      0.147850000000     0.937990000000     0.496730000000     0.304718   
C312     C      0.147980000000     0.879620000000     0.683010000000     0.0475465  
C313     C      0.639790000000     0.794130000000     0.687970000000     0.0682438  
C314     C      0.182510000000     0.896730000000     0.718470000000     0.0370536  
C315     C      0.676110000000     0.811480000000     0.722690000000    -0.00393019 
C316     C      0.684970000000     0.770400000000     0.744290000000     0.305691   
C317     C      0.959300000000     0.118010000000     0.680950000000     0.0452931  
C318     C      0.879160000000     0.622550000000     0.683860000000     0.066752   
C319     C      0.942050000000     0.083870000000     0.716650000000     0.0373297  
C320     C      0.860810000000     0.587420000000     0.719020000000    -0.00185845 
C321     C      0.809890000000     0.578130000000     0.739910000000     0.306496   
C322     C      0.949060000000     0.084460000000     0.934770000000     0.0437359  
C323     C      0.869520000000     0.089830000000     0.928540000000     0.0698258  
C324     C      0.967240000000     0.622520000000     0.967590000000     0.0387079  
C325     C      0.885560000000     0.624980000000     0.463680000000    -0.00158886 
C326     C      0.849150000000     0.645430000000     0.476090000000     0.304576   
C327     C      0.945120000000     0.896060000000     0.431760000000     0.0453268  
C328     C      0.855400000000     0.826000000000     0.942430000000     0.06683    
C329     C      0.961780000000     0.878220000000     0.467200000000     0.0388393  
C330     C      0.871800000000     0.807020000000     0.477600000000     0.00435645 
C331     C      0.828340000000     0.763700000000     0.504160000000     0.303069   
C332     C      0.950650000000     0.903270000000     0.720580000000     0.0456047  
C333     C      0.863840000000     0.826520000000     0.717730000000     0.0703878  
C334     C      0.968010000000     0.882290000000     0.687930000000     0.036074   
C335     C      0.879590000000     0.806990000000     0.682570000000    -0.00229446 
C336     C      0.836930000000     0.756080000000     0.663620000000     0.309333   
Fe1      Fe     0.400110000000     0.471070000000     0.326280000000     1.35944    
Fe2      Fe     0.298170000000     0.470720000000     0.325000000000     1.37875    
Fe3      Fe     0.298030000000     0.370440000000     0.327000000000     1.3862     
Fe4      Fe     0.429430000000     0.235610000000     0.075530000000     1.38832    
Fe5      Fe     0.531260000000     0.235890000000     0.074860000000     1.36051    
Fe6      Fe     0.530520000000     0.336350000000     0.077560000000     1.37534    
Fe7      Fe     0.400110000000     0.471070000000     0.826280000000     1.35943    
Fe8      Fe     0.298170000000     0.470720000000     0.825000000000     1.3788     
Fe9      Fe     0.298030000000     0.370440000000     0.827000000000     1.38619    
Fe10     Fe     0.429430000000     0.235610000000     0.575530000000     1.38833    
Fe11     Fe     0.531260000000     0.235890000000     0.574860000000     1.36064    
Fe12     Fe     0.530520000000     0.336350000000     0.577560000000     1.37535    
Fe13     Fe     0.400100000000     0.971070000000     0.326280000000     1.3596     
Fe14     Fe     0.298170000000     0.970720000000     0.325000000000     1.37869    
Fe15     Fe     0.298030000000     0.870440000000     0.327000000000     1.38613    
Fe16     Fe     0.429430000000     0.735620000000     0.075530000000     1.38831    
Fe17     Fe     0.531260000000     0.735890000000     0.074860000000     1.36065    
Fe18     Fe     0.530520000000     0.836350000000     0.077560000000     1.37537    
Fe19     Fe     0.400100000000     0.971070000000     0.826280000000     1.35959    
Fe20     Fe     0.298170000000     0.970720000000     0.825000000000     1.37874    
Fe21     Fe     0.298030000000     0.870440000000     0.827000000000     1.38613    
Fe22     Fe     0.429430000000     0.735620000000     0.575530000000     1.38832    
Fe23     Fe     0.531260000000     0.735890000000     0.574860000000     1.36078    
Fe24     Fe     0.530520000000     0.836350000000     0.577560000000     1.37538    
Fe25     Fe     0.900100000000     0.471070000000     0.326280000000     1.35972    
Fe26     Fe     0.798170000000     0.470720000000     0.325000000000     1.37881    
Fe27     Fe     0.798030000000     0.370440000000     0.327000000000     1.38626    
Fe28     Fe     0.929430000000     0.235610000000     0.075530000000     1.38835    
Fe29     Fe     0.031260000000     0.235890000000     0.074860000000     1.35836    
Fe30     Fe     0.030520000000     0.336350000000     0.077560000000     1.37319    
Fe31     Fe     0.900100000000     0.471070000000     0.826280000000     1.35972    
Fe32     Fe     0.798170000000     0.470720000000     0.825000000000     1.37886    
Fe33     Fe     0.798030000000     0.370440000000     0.827000000000     1.38625    
Fe34     Fe     0.929430000000     0.235610000000     0.575530000000     1.38836    
Fe35     Fe     0.031260000000     0.235890000000     0.574860000000     1.35849    
Fe36     Fe     0.030520000000     0.336350000000     0.577560000000     1.3732     
Fe37     Fe     0.900110000000     0.971070000000     0.326280000000     1.35958    
Fe38     Fe     0.798170000000     0.970720000000     0.325000000000     1.37873    
Fe39     Fe     0.798030000000     0.870440000000     0.327000000000     1.38622    
Fe40     Fe     0.929430000000     0.735620000000     0.075530000000     1.38835    
Fe41     Fe     0.031260000000     0.735890000000     0.074860000000     1.35848    
Fe42     Fe     0.030520000000     0.836350000000     0.077560000000     1.37322    
Fe43     Fe     0.900110000000     0.971070000000     0.826280000000     1.35958    
Fe44     Fe     0.798170000000     0.970720000000     0.825000000000     1.37878    
Fe45     Fe     0.798030000000     0.870440000000     0.827000000000     1.38622    
Fe46     Fe     0.929430000000     0.735620000000     0.575530000000     1.38836    
Fe47     Fe     0.031260000000     0.735890000000     0.574860000000     1.35861    
Fe48     Fe     0.030520000000     0.836350000000     0.577560000000     1.37322    
H1       H      0.627600000000     0.268390000000     0.977400000000     0.0414016  
H2       H      0.188440000000     0.298460000000     0.416750000000     0.0438599  
H3       H      0.209330000000     0.455180000000     0.428780000000     0.0463651  
H4       H      0.640350000000     0.503960000000     0.988300000000     0.18554    
H5       H      0.698770000000     0.437890000000     0.229080000000     0.0462556  
H6       H      0.637840000000     0.407710000000     0.168450000000     0.0428525  
H7       H      0.122370000000     0.252900000000     0.177150000000     0.042629   
H8       H      0.197400000000     0.207750000000     0.233620000000     0.187129   
H9       H      0.468060000000     0.569040000000     0.228160000000     0.0402582  
H10      H      0.498550000000     0.629540000000     0.167140000000     0.0382581  
H11      H      0.353470000000     0.137230000000     0.171600000000     0.0610554  
H12      H      0.233590000000     0.063490000000     0.228200000000     0.18492    
H13      H      0.506410000000     0.134440000000     0.481790000000     0.0361669  
H14      H      0.475110000000     0.569090000000     0.424610000000     0.0363208  
H15      H      0.330790000000     0.577880000000     0.413370000000     0.0448092  
H16      H      0.295050000000     0.140150000000     0.021080000000     0.184438   
H17      H      0.504450000000     0.399720000000     0.975580000000     0.0456074  
H18      H      0.475180000000     0.431430000000     0.914840000000     0.0389116  
H19      H      0.312710000000     0.305610000000     0.434160000000     0.0500465  
H20      H      0.252230000000     0.199200000000     0.002090000000     0.181246   
H21      H      0.509810000000     0.406120000000     0.177620000000     0.039859   
H22      H      0.479660000000     0.441610000000     0.234500000000     0.0332055  
H23      H      0.322350000000     0.303750000000     0.229220000000     0.0479726  
H24      H      0.260720000000     0.218860000000     0.139060000000     0.191165   
H25      H      0.627600000000     0.268390000000     0.477400000000     0.0413828  
H26      H      0.188440000000     0.298460000000     0.916750000000     0.0438531  
H27      H      0.209330000000     0.455180000000     0.928780000000     0.0463644  
H28      H      0.640350000000     0.503960000000     0.488300000000     0.185521   
H29      H      0.698770000000     0.437890000000     0.729080000000     0.0462514  
H30      H      0.637840000000     0.407710000000     0.668460000000     0.0428449  
H31      H      0.122370000000     0.252900000000     0.677150000000     0.0426285  
H32      H      0.197400000000     0.207750000000     0.733610000000     0.187188   
H33      H      0.468060000000     0.569040000000     0.728160000000     0.0402586  
H34      H      0.498550000000     0.629540000000     0.667130000000     0.0382639  
H35      H      0.353470000000     0.137230000000     0.671600000000     0.0610563  
H36      H      0.233590000000     0.063490000000     0.728200000000     0.184919   
H37      H      0.506410000000     0.134440000000     0.981790000000     0.0361816  
H38      H      0.475110000000     0.569090000000     0.924610000000     0.0363236  
H39      H      0.330790000000     0.577880000000     0.913370000000     0.0448098  
H40      H      0.295050000000     0.140150000000     0.521070000000     0.184471   
H41      H      0.504450000000     0.399720000000     0.475580000000     0.0455933  
H42      H      0.475180000000     0.431430000000     0.414840000000     0.0389099  
H43      H      0.312710000000     0.305610000000     0.934160000000     0.0500518  
H44      H      0.252230000000     0.199200000000     0.502090000000     0.181298   
H45      H      0.509810000000     0.406120000000     0.677620000000     0.03986    
H46      H      0.479660000000     0.441610000000     0.734510000000     0.0332078  
H47      H      0.322350000000     0.303750000000     0.729220000000     0.0479719  
H48      H      0.260720000000     0.218860000000     0.639060000000     0.191166   
H49      H      0.627600000000     0.768390000000     0.977400000000     0.0413872  
H50      H      0.188440000000     0.798460000000     0.416750000000     0.0438604  
H51      H      0.209330000000     0.955180000000     0.428780000000     0.0463531  
H52      H      0.640350000000     0.003960000000     0.988300000000     0.185608   
H53      H      0.698770000000     0.937890000000     0.229080000000     0.0462387  
H54      H      0.637840000000     0.907710000000     0.168450000000     0.042842   
H55      H      0.122370000000     0.752890000000     0.177150000000     0.0426279  
H56      H      0.197400000000     0.707750000000     0.233620000000     0.187124   
H57      H      0.468060000000     0.069040000000     0.228160000000     0.0402711  
H58      H      0.498550000000     0.129540000000     0.167140000000     0.0382733  
H59      H      0.353470000000     0.637230000000     0.171600000000     0.061038   
H60      H      0.233590000000     0.563490000000     0.228210000000     0.184818   
H61      H      0.506410000000     0.634440000000     0.481790000000     0.0361618  
H62      H      0.475110000000     0.069090000000     0.424610000000     0.0363367  
H63      H      0.330790000000     0.077880000000     0.413370000000     0.0448151  
H64      H      0.295050000000     0.640160000000     0.021080000000     0.184333   
H65      H      0.504460000000     0.899720000000     0.975580000000     0.0456023  
H66      H      0.475180000000     0.931430000000     0.914840000000     0.0389022  
H67      H      0.312710000000     0.805610000000     0.434160000000     0.0500483  
H68      H      0.252240000000     0.699200000000     0.002090000000     0.181297   
H69      H      0.509820000000     0.906120000000     0.177620000000     0.0398467  
H70      H      0.479660000000     0.941610000000     0.234500000000     0.0331988  
H71      H      0.322350000000     0.803750000000     0.229220000000     0.0479658  
H72      H      0.260720000000     0.718860000000     0.139060000000     0.191063   
H73      H      0.627600000000     0.768390000000     0.477400000000     0.0413684  
H74      H      0.188440000000     0.798460000000     0.916750000000     0.0438535  
H75      H      0.209330000000     0.955180000000     0.928780000000     0.0463522  
H76      H      0.640350000000     0.003960000000     0.488300000000     0.18559    
H77      H      0.698770000000     0.937890000000     0.729080000000     0.046235   
H78      H      0.637840000000     0.907710000000     0.668460000000     0.0428353  
H79      H      0.122370000000     0.752890000000     0.677150000000     0.0426273  
H80      H      0.197400000000     0.707750000000     0.733610000000     0.187183   
H81      H      0.468060000000     0.069040000000     0.728160000000     0.0402715  
H82      H      0.498550000000     0.129540000000     0.667130000000     0.0382794  
H83      H      0.353470000000     0.637230000000     0.671600000000     0.061038   
H84      H      0.233590000000     0.563490000000     0.728200000000     0.184874   
H85      H      0.506410000000     0.634440000000     0.981790000000     0.0361765  
H86      H      0.475110000000     0.069090000000     0.924610000000     0.0363395  
H87      H      0.330790000000     0.077880000000     0.913370000000     0.0448154  
H88      H      0.295050000000     0.640160000000     0.521070000000     0.184366   
H89      H      0.504460000000     0.899720000000     0.475580000000     0.0455881  
H90      H      0.475180000000     0.931430000000     0.414840000000     0.0389005  
H91      H      0.312710000000     0.805610000000     0.934160000000     0.0500536  
H92      H      0.252240000000     0.699200000000     0.502090000000     0.181349   
H93      H      0.509820000000     0.906120000000     0.677620000000     0.0398482  
H94      H      0.479660000000     0.941610000000     0.734510000000     0.0332014  
H95      H      0.322350000000     0.803750000000     0.729220000000     0.0479651  
H96      H      0.260720000000     0.718860000000     0.639060000000     0.191063   
H97      H      0.127600000000     0.268390000000     0.977400000000     0.0413059  
H98      H      0.688440000000     0.298460000000     0.416750000000     0.0439384  
H99      H      0.709330000000     0.455180000000     0.428780000000     0.0464087  
H100     H      0.140350000000     0.503960000000     0.988300000000     0.185393   
H101     H      0.198770000000     0.437890000000     0.229080000000     0.0462009  
H102     H      0.137840000000     0.407710000000     0.168450000000     0.0427868  
H103     H      0.622380000000     0.252900000000     0.177150000000     0.0428056  
H104     H      0.697400000000     0.207750000000     0.233620000000     0.187233   
H105     H      0.968060000000     0.569040000000     0.228160000000     0.0404861  
H106     H      0.998550000000     0.629540000000     0.167140000000     0.038627   
H107     H      0.853470000000     0.137230000000     0.171600000000     0.0610872  
H108     H      0.733590000000     0.063490000000     0.228200000000     0.185024   
H109     H      0.006410000000     0.134440000000     0.481790000000     0.0346234  
H110     H      0.975110000000     0.569090000000     0.424610000000     0.0368393  
H111     H      0.830790000000     0.577880000000     0.413370000000     0.0448627  
H112     H      0.795050000000     0.140150000000     0.021080000000     0.184452   
H113     H      0.004460000000     0.399720000000     0.975580000000     0.0440382  
H114     H      0.975180000000     0.431430000000     0.914840000000     0.0394268  
H115     H      0.812710000000     0.305610000000     0.434160000000     0.0500886  
H116     H      0.752230000000     0.199200000000     0.002090000000     0.181307   
H117     H      0.009810000000     0.406120000000     0.177620000000     0.0383436  
H118     H      0.979660000000     0.441610000000     0.234500000000     0.0337315  
H119     H      0.822350000000     0.303750000000     0.229220000000     0.0480107  
H120     H      0.760720000000     0.218860000000     0.139060000000     0.191219   
H121     H      0.127600000000     0.268390000000     0.477400000000     0.0412872  
H122     H      0.688440000000     0.298460000000     0.916750000000     0.0439315  
H123     H      0.709330000000     0.455180000000     0.928780000000     0.0464079  
H124     H      0.140350000000     0.503960000000     0.488300000000     0.185374   
H125     H      0.198770000000     0.437890000000     0.729080000000     0.0461967  
H126     H      0.137840000000     0.407710000000     0.668460000000     0.0427792  
H127     H      0.622380000000     0.252900000000     0.677150000000     0.0428051  
H128     H      0.697400000000     0.207750000000     0.733610000000     0.187293   
H129     H      0.968060000000     0.569040000000     0.728160000000     0.0404865  
H130     H      0.998550000000     0.629540000000     0.667130000000     0.0386328  
H131     H      0.853470000000     0.137230000000     0.671600000000     0.0610881  
H132     H      0.733590000000     0.063490000000     0.728200000000     0.185024   
H133     H      0.006410000000     0.134440000000     0.981790000000     0.0346383  
H134     H      0.975110000000     0.569090000000     0.924610000000     0.036842   
H135     H      0.830790000000     0.577880000000     0.913370000000     0.0448633  
H136     H      0.795050000000     0.140150000000     0.521070000000     0.184485   
H137     H      0.004460000000     0.399720000000     0.475580000000     0.0440238  
H138     H      0.975180000000     0.431430000000     0.414840000000     0.0394251  
H139     H      0.812710000000     0.305610000000     0.934160000000     0.0500939  
H140     H      0.752230000000     0.199200000000     0.502090000000     0.181359   
H141     H      0.009810000000     0.406120000000     0.677620000000     0.0383446  
H142     H      0.979660000000     0.441610000000     0.734510000000     0.0337337  
H143     H      0.822350000000     0.303750000000     0.729220000000     0.04801    
H144     H      0.760720000000     0.218860000000     0.639060000000     0.19122    
H145     H      0.127600000000     0.768390000000     0.977400000000     0.0412918  
H146     H      0.688440000000     0.798460000000     0.416750000000     0.043939   
H147     H      0.709330000000     0.955180000000     0.428780000000     0.0463977  
H148     H      0.140350000000     0.003960000000     0.988300000000     0.18546    
H149     H      0.198770000000     0.937890000000     0.229080000000     0.0461841  
H150     H      0.137840000000     0.907710000000     0.168450000000     0.0427767  
H151     H      0.622370000000     0.752890000000     0.177150000000     0.0428083  
H152     H      0.697400000000     0.707750000000     0.233620000000     0.18724    
H153     H      0.968060000000     0.069040000000     0.228160000000     0.0404789  
H154     H      0.998550000000     0.129540000000     0.167140000000     0.0386531  
H155     H      0.853470000000     0.637230000000     0.171600000000     0.0610557  
H156     H      0.733590000000     0.563490000000     0.228210000000     0.184924   
H157     H      0.006410000000     0.634440000000     0.481790000000     0.0346181  
H158     H      0.975110000000     0.069090000000     0.424610000000     0.0368479  
H159     H      0.830800000000     0.077880000000     0.413370000000     0.0448685  
H160     H      0.795050000000     0.640160000000     0.021080000000     0.184358   
H161     H      0.004450000000     0.899720000000     0.975580000000     0.0440187  
H162     H      0.975180000000     0.931430000000     0.914840000000     0.0394321  
H163     H      0.812710000000     0.805610000000     0.434160000000     0.0500909  
H164     H      0.752240000000     0.699200000000     0.002090000000     0.181356   
H165     H      0.009810000000     0.906120000000     0.177620000000     0.0383311  
H166     H      0.979660000000     0.941610000000     0.234500000000     0.0337178  
H167     H      0.822340000000     0.803750000000     0.229220000000     0.0480172  
H168     H      0.760720000000     0.718860000000     0.139060000000     0.191128   
H169     H      0.127600000000     0.768390000000     0.477400000000     0.041273   
H170     H      0.688440000000     0.798460000000     0.916750000000     0.0439322  
H171     H      0.709330000000     0.955180000000     0.928780000000     0.0463968  
H172     H      0.140350000000     0.003960000000     0.488300000000     0.185441   
H173     H      0.198770000000     0.937890000000     0.729080000000     0.0461804  
H174     H      0.137840000000     0.907710000000     0.668460000000     0.0427699  
H175     H      0.622370000000     0.752890000000     0.677150000000     0.0428077  
H176     H      0.697400000000     0.707750000000     0.733610000000     0.187299   
H177     H      0.968060000000     0.069040000000     0.728160000000     0.0404793  
H178     H      0.998550000000     0.129540000000     0.667130000000     0.0386592  
H179     H      0.853470000000     0.637230000000     0.671600000000     0.0610557  
H180     H      0.733590000000     0.563490000000     0.728200000000     0.18498    
H181     H      0.006410000000     0.634440000000     0.981790000000     0.0346331  
H182     H      0.975110000000     0.069090000000     0.924610000000     0.0368507  
H183     H      0.830800000000     0.077880000000     0.913370000000     0.0448688  
H184     H      0.795050000000     0.640160000000     0.521070000000     0.184391   
H185     H      0.004450000000     0.899720000000     0.475580000000     0.0440044  
H186     H      0.975180000000     0.931430000000     0.414840000000     0.0394304  
H187     H      0.812710000000     0.805610000000     0.934160000000     0.0500962  
H188     H      0.752240000000     0.699200000000     0.502090000000     0.181408   
H189     H      0.009810000000     0.906120000000     0.677620000000     0.0383327  
H190     H      0.979660000000     0.941610000000     0.734510000000     0.0337203  
H191     H      0.822340000000     0.803750000000     0.729220000000     0.0480165  
H192     H      0.760720000000     0.718860000000     0.639060000000     0.191128   
N1       N      0.202560000000     0.378840000000     0.417970000000    -0.199939   
N2       N      0.631160000000     0.343770000000     0.987560000000    -0.182482   
N3       N      0.626370000000     0.328280000000     0.168100000000    -0.200932   
N4       N      0.197890000000     0.363520000000     0.237510000000    -0.182243   
N5       N      0.428200000000     0.138010000000     0.165220000000    -0.198435   
N6       N      0.392510000000     0.567530000000     0.235040000000    -0.181911   
N7       N      0.400610000000     0.568810000000     0.414980000000    -0.201096   
N8       N      0.435240000000     0.141910000000     0.982820000000    -0.182515   
N9       N      0.391980000000     0.369890000000     0.419460000000    -0.200623   
N10      N      0.425820000000     0.332840000000     0.988920000000    -0.182761   
N11      N      0.399190000000     0.374480000000     0.236170000000    -0.20358    
N12      N      0.432800000000     0.334510000000     0.168430000000    -0.180187   
N13      N      0.202560000000     0.378840000000     0.917970000000    -0.199947   
N14      N      0.631160000000     0.343770000000     0.487560000000    -0.182553   
N15      N      0.626370000000     0.328280000000     0.668100000000    -0.200933   
N16      N      0.197890000000     0.363520000000     0.737510000000    -0.182222   
N17      N      0.428200000000     0.138010000000     0.665220000000    -0.198436   
N18      N      0.392510000000     0.567530000000     0.735040000000    -0.18191    
N19      N      0.400610000000     0.568810000000     0.914980000000    -0.201097   
N20      N      0.435240000000     0.141910000000     0.482820000000    -0.182552   
N21      N      0.391980000000     0.369890000000     0.919470000000    -0.200568   
N22      N      0.425820000000     0.332840000000     0.488910000000    -0.182726   
N23      N      0.399190000000     0.374480000000     0.736170000000    -0.203581   
N24      N      0.432800000000     0.334510000000     0.668430000000    -0.180187   
N25      N      0.202560000000     0.878840000000     0.417970000000    -0.199939   
N26      N      0.631160000000     0.843770000000     0.987560000000    -0.182553   
N27      N      0.626370000000     0.828280000000     0.168100000000    -0.200936   
N28      N      0.197890000000     0.863520000000     0.237510000000    -0.182243   
N29      N      0.428200000000     0.638010000000     0.165220000000    -0.198499   
N30      N      0.392510000000     0.067530000000     0.235040000000    -0.181923   
N31      N      0.400610000000     0.068810000000     0.414980000000    -0.201089   
N32      N      0.435240000000     0.641910000000     0.982820000000    -0.182515   
N33      N      0.391980000000     0.869890000000     0.419460000000    -0.200614   
N34      N      0.425820000000     0.832840000000     0.988920000000    -0.182791   
N35      N      0.399190000000     0.874480000000     0.236170000000    -0.203582   
N36      N      0.432800000000     0.834510000000     0.168430000000    -0.1802     
N37      N      0.202560000000     0.878840000000     0.917970000000    -0.199947   
N38      N      0.631160000000     0.843770000000     0.487560000000    -0.182624   
N39      N      0.626370000000     0.828280000000     0.668100000000    -0.200938   
N40      N      0.197890000000     0.863520000000     0.737510000000    -0.182222   
N41      N      0.428200000000     0.638010000000     0.665220000000    -0.198501   
N42      N      0.392510000000     0.067530000000     0.735040000000    -0.181924   
N43      N      0.400610000000     0.068810000000     0.914980000000    -0.20109    
N44      N      0.435240000000     0.641910000000     0.482820000000    -0.182552   
N45      N      0.391980000000     0.869890000000     0.919470000000    -0.200559   
N46      N      0.425820000000     0.832840000000     0.488910000000    -0.182756   
N47      N      0.399190000000     0.874480000000     0.736170000000    -0.203583   
N48      N      0.432800000000     0.834510000000     0.668430000000    -0.1802     
N49      N      0.702560000000     0.378840000000     0.417970000000    -0.19992    
N50      N      0.131160000000     0.343770000000     0.987560000000    -0.18247    
N51      N      0.126370000000     0.328280000000     0.168100000000    -0.200934   
N52      N      0.697890000000     0.363520000000     0.237510000000    -0.182228   
N53      N      0.928200000000     0.138010000000     0.165220000000    -0.198332   
N54      N      0.892510000000     0.567530000000     0.235040000000    -0.181905   
N55      N      0.900610000000     0.568810000000     0.414980000000    -0.200934   
N56      N      0.935240000000     0.141910000000     0.982820000000    -0.183027   
N57      N      0.891980000000     0.369890000000     0.419460000000    -0.200472   
N58      N      0.925820000000     0.332840000000     0.988920000000    -0.182994   
N59      N      0.899190000000     0.374480000000     0.236170000000    -0.203419   
N60      N      0.932800000000     0.334510000000     0.168430000000    -0.180694   
N61      N      0.702560000000     0.378840000000     0.917970000000    -0.199928   
N62      N      0.131160000000     0.343770000000     0.487560000000    -0.182541   
N63      N      0.126370000000     0.328280000000     0.668100000000    -0.200936   
N64      N      0.697890000000     0.363520000000     0.737510000000    -0.182207   
N65      N      0.928200000000     0.138010000000     0.665220000000    -0.198333   
N66      N      0.892510000000     0.567530000000     0.735040000000    -0.181904   
N67      N      0.900610000000     0.568810000000     0.914980000000    -0.200935   
N68      N      0.935240000000     0.141910000000     0.482820000000    -0.183065   
N69      N      0.891980000000     0.369890000000     0.919470000000    -0.200417   
N70      N      0.925820000000     0.332840000000     0.488910000000    -0.18296    
N71      N      0.899190000000     0.374480000000     0.736170000000    -0.20342    
N72      N      0.932800000000     0.334510000000     0.668430000000    -0.180694   
N73      N      0.702560000000     0.878840000000     0.417970000000    -0.199919   
N74      N      0.131160000000     0.843770000000     0.987560000000    -0.182541   
N75      N      0.126370000000     0.828280000000     0.168100000000    -0.200939   
N76      N      0.697890000000     0.863520000000     0.237510000000    -0.18223    
N77      N      0.928200000000     0.638010000000     0.165220000000    -0.198411   
N78      N      0.892510000000     0.067530000000     0.235040000000    -0.181927   
N79      N      0.900610000000     0.068810000000     0.414980000000    -0.200925   
N80      N      0.935240000000     0.641910000000     0.982820000000    -0.183029   
N81      N      0.891980000000     0.869890000000     0.419460000000    -0.200451   
N82      N      0.925820000000     0.832840000000     0.988920000000    -0.183034   
N83      N      0.899190000000     0.874480000000     0.236170000000    -0.203417   
N84      N      0.932800000000     0.834510000000     0.168430000000    -0.180711   
N85      N      0.702560000000     0.878840000000     0.917970000000    -0.199927   
N86      N      0.131160000000     0.843770000000     0.487560000000    -0.182612   
N87      N      0.126370000000     0.828280000000     0.668100000000    -0.20094    
N88      N      0.697890000000     0.863520000000     0.737510000000    -0.182209   
N89      N      0.928200000000     0.638010000000     0.665220000000    -0.198413   
N90      N      0.892510000000     0.067530000000     0.735040000000    -0.181927   
N91      N      0.900610000000     0.068810000000     0.914980000000    -0.200926   
N92      N      0.935240000000     0.641910000000     0.482820000000    -0.183067   
N93      N      0.891980000000     0.869890000000     0.919470000000    -0.200396   
N94      N      0.925820000000     0.832840000000     0.488910000000    -0.182999   
N95      N      0.899190000000     0.874480000000     0.736170000000    -0.203418   
N96      N      0.932800000000     0.834510000000     0.668430000000    -0.180711   
O1       O      0.347370000000     0.361420000000     0.295650000000    -0.496928   
O2       O      0.268180000000     0.445340000000     0.377060000000    -0.502837   
O3       O      0.403670000000     0.443040000000     0.275450000000    -0.507668   
O4       O      0.408300000000     0.422260000000     0.359350000000    -0.491913   
O5       O      0.267850000000     0.366460000000     0.275240000000    -0.495074   
O6       O      0.348060000000     0.529270000000     0.355770000000    -0.487347   
O7       O      0.332150000000     0.437390000000     0.326080000000    -0.878555   
O8       O      0.325380000000     0.498670000000     0.273000000000    -0.492672   
O9       O      0.408420000000     0.528040000000     0.293100000000    -0.486984   
O10      O      0.325190000000     0.368780000000     0.378780000000    -0.507663   
O11      O      0.402850000000     0.502250000000     0.377210000000    -0.505283   
O12      O      0.239410000000     0.420570000000     0.294050000000    -0.491843   
O13      O      0.240010000000     0.362860000000     0.358650000000    -0.487901   
O14      O      0.481270000000     0.345640000000     0.045990000000    -0.492389   
O15      O      0.561510000000     0.261710000000     0.126790000000    -0.503453   
O16      O      0.426610000000     0.264120000000     0.024550000000    -0.487992   
O17      O      0.420120000000     0.283950000000     0.107790000000    -0.475394   
O18      O      0.561880000000     0.341590000000     0.026000000000    -0.49253    
O19      O      0.481800000000     0.177370000000     0.106190000000    -0.491762   
O20      O      0.497150000000     0.269300000000     0.075860000000    -0.879075   
O21      O      0.503920000000     0.206920000000     0.022770000000    -0.50123    
O22      O      0.421480000000     0.178950000000     0.043150000000    -0.485079   
O23      O      0.501960000000     0.336790000000     0.129460000000    -0.500663   
O24      O      0.426460000000     0.204300000000     0.126500000000    -0.489764   
O25      O      0.589420000000     0.286200000000     0.043640000000    -0.492323   
O26      O      0.588360000000     0.344210000000     0.109300000000    -0.489556   
O27      O      0.643960000000     0.475980000000     0.974130000000    -0.335598   
O28      O      0.148090000000     0.439360000000     0.036010000000    -0.236947   
O29      O      0.191980000000     0.235150000000     0.220420000000    -0.332459   
O30      O      0.183930000000     0.267070000000     0.283490000000    -0.240575   
O31      O      0.266960000000     0.069010000000     0.215470000000    -0.331572   
O32      O      0.307410000000     0.080860000000     0.278990000000    -0.237642   
O33      O      0.319700000000     0.127920000000     0.012560000000    -0.318046   
O34      O      0.344070000000     0.176350000000     0.952270000000    -0.219309   
O35      O      0.281530000000     0.226980000000     0.485480000000    -0.325984   
O36      O      0.333530000000     0.262550000000     0.043070000000    -0.232423   
O37      O      0.289720000000     0.251910000000     0.150830000000    -0.321272   
O38      O      0.343110000000     0.217200000000     0.161520000000    -0.226291   
O39      O      0.347370000000     0.361420000000     0.795650000000    -0.496928   
O40      O      0.268180000000     0.445340000000     0.877060000000    -0.502836   
O41      O      0.403670000000     0.443040000000     0.775450000000    -0.507668   
O42      O      0.408300000000     0.422260000000     0.859350000000    -0.491893   
O43      O      0.267850000000     0.366460000000     0.775240000000    -0.495035   
O44      O      0.348060000000     0.529270000000     0.855770000000    -0.487355   
O45      O      0.332150000000     0.437390000000     0.826080000000    -0.878559   
O46      O      0.325380000000     0.498670000000     0.773000000000    -0.492686   
O47      O      0.408420000000     0.528040000000     0.793100000000    -0.486985   
O48      O      0.325190000000     0.368780000000     0.878780000000    -0.507639   
O49      O      0.402850000000     0.502250000000     0.877210000000    -0.505282   
O50      O      0.239410000000     0.420570000000     0.794060000000    -0.491812   
O51      O      0.240010000000     0.362860000000     0.858650000000    -0.487893   
O52      O      0.481270000000     0.345640000000     0.545990000000    -0.492374   
O53      O      0.561510000000     0.261710000000     0.626790000000    -0.503475   
O54      O      0.426610000000     0.264120000000     0.524550000000    -0.487971   
O55      O      0.420120000000     0.283950000000     0.607790000000    -0.475394   
O56      O      0.561880000000     0.341590000000     0.526000000000    -0.492486   
O57      O      0.481800000000     0.177370000000     0.606190000000    -0.491768   
O58      O      0.497150000000     0.269300000000     0.575860000000    -0.879092   
O59      O      0.503920000000     0.206920000000     0.522780000000    -0.501338   
O60      O      0.421480000000     0.178950000000     0.543150000000    -0.485081   
O61      O      0.501960000000     0.336790000000     0.629460000000    -0.500664   
O62      O      0.426460000000     0.204300000000     0.626500000000    -0.489765   
O63      O      0.589420000000     0.286200000000     0.543640000000    -0.492245   
O64      O      0.588360000000     0.344210000000     0.609300000000    -0.489551   
O65      O      0.643960000000     0.475980000000     0.474130000000    -0.335585   
O66      O      0.148090000000     0.439360000000     0.536010000000    -0.236889   
O67      O      0.191980000000     0.235150000000     0.720420000000    -0.332533   
O68      O      0.183930000000     0.267070000000     0.783490000000    -0.24058    
O69      O      0.266960000000     0.069010000000     0.715470000000    -0.331571   
O70      O      0.307410000000     0.080860000000     0.778990000000    -0.237643   
O71      O      0.319700000000     0.127920000000     0.512560000000    -0.31804    
O72      O      0.344070000000     0.176350000000     0.452270000000    -0.219314   
O73      O      0.281530000000     0.226980000000     0.985480000000    -0.32589    
O74      O      0.333530000000     0.262550000000     0.543070000000    -0.232446   
O75      O      0.289720000000     0.251910000000     0.650830000000    -0.321271   
O76      O      0.343110000000     0.217200000000     0.661520000000    -0.22629    
O77      O      0.347380000000     0.861420000000     0.295650000000    -0.496896   
O78      O      0.268180000000     0.945340000000     0.377060000000    -0.502843   
O79      O      0.403670000000     0.943040000000     0.275450000000    -0.507685   
O80      O      0.408300000000     0.922270000000     0.359350000000    -0.491896   
O81      O      0.267850000000     0.866460000000     0.275240000000    -0.49508    
O82      O      0.348060000000     0.029270000000     0.355770000000    -0.487247   
O83      O      0.332150000000     0.937390000000     0.326080000000    -0.878697   
O84      O      0.325380000000     0.998670000000     0.273000000000    -0.492753   
O85      O      0.408420000000     0.028040000000     0.293100000000    -0.487032   
O86      O      0.325190000000     0.868780000000     0.378780000000    -0.507634   
O87      O      0.402850000000     0.002250000000     0.377210000000    -0.505347   
O88      O      0.239410000000     0.920570000000     0.294050000000    -0.491838   
O89      O      0.240010000000     0.862860000000     0.358650000000    -0.487888   
O90      O      0.481270000000     0.845640000000     0.045990000000    -0.492463   
O91      O      0.561510000000     0.761710000000     0.126790000000    -0.503464   
O92      O      0.426610000000     0.764130000000     0.024550000000    -0.488148   
O93      O      0.420120000000     0.783950000000     0.107790000000    -0.475503   
O94      O      0.561880000000     0.841580000000     0.026000000000    -0.492686   
O95      O      0.481800000000     0.677380000000     0.106190000000    -0.492      
O96      O      0.497150000000     0.769300000000     0.075860000000    -0.879071   
O97      O      0.503920000000     0.706920000000     0.022770000000    -0.501236   
O98      O      0.421480000000     0.678950000000     0.043150000000    -0.484977   
O99      O      0.501960000000     0.836790000000     0.129460000000    -0.500685   
O100     O      0.426470000000     0.704300000000     0.126500000000    -0.489748   
O101     O      0.589420000000     0.786210000000     0.043640000000    -0.492479   
O102     O      0.588360000000     0.844210000000     0.109300000000    -0.489558   
O103     O      0.643960000000     0.975980000000     0.974130000000    -0.335673   
O104     O      0.148090000000     0.939360000000     0.036010000000    -0.236977   
O105     O      0.191980000000     0.735150000000     0.220420000000    -0.332464   
O106     O      0.183930000000     0.767070000000     0.283490000000    -0.240578   
O107     O      0.266960000000     0.569000000000     0.215470000000    -0.33149    
O108     O      0.307410000000     0.580860000000     0.278990000000    -0.237654   
O109     O      0.319700000000     0.627920000000     0.012560000000    -0.317911   
O110     O      0.344070000000     0.676350000000     0.952270000000    -0.21931    
O111     O      0.281530000000     0.726980000000     0.485480000000    -0.326047   
O112     O      0.333530000000     0.762550000000     0.043070000000    -0.232434   
O113     O      0.289730000000     0.751920000000     0.150830000000    -0.321191   
O114     O      0.343110000000     0.717200000000     0.161520000000    -0.226309   
O115     O      0.347380000000     0.861420000000     0.795650000000    -0.496897   
O116     O      0.268180000000     0.945340000000     0.877060000000    -0.502842   
O117     O      0.403670000000     0.943040000000     0.775450000000    -0.507686   
O118     O      0.408300000000     0.922270000000     0.859350000000    -0.491876   
O119     O      0.267850000000     0.866460000000     0.775240000000    -0.495042   
O120     O      0.348060000000     0.029270000000     0.855770000000    -0.487255   
O121     O      0.332150000000     0.937390000000     0.826080000000    -0.878701   
O122     O      0.325380000000     0.998670000000     0.773000000000    -0.492767   
O123     O      0.408420000000     0.028040000000     0.793100000000    -0.487034   
O124     O      0.325190000000     0.868780000000     0.878780000000    -0.507609   
O125     O      0.402850000000     0.002250000000     0.877210000000    -0.505346   
O126     O      0.239410000000     0.920570000000     0.794060000000    -0.491807   
O127     O      0.240010000000     0.862860000000     0.858650000000    -0.48788    
O128     O      0.481270000000     0.845640000000     0.545990000000    -0.492448   
O129     O      0.561510000000     0.761710000000     0.626790000000    -0.503487   
O130     O      0.426610000000     0.764130000000     0.524550000000    -0.488127   
O131     O      0.420120000000     0.783950000000     0.607790000000    -0.475503   
O132     O      0.561880000000     0.841580000000     0.526000000000    -0.492642   
O133     O      0.481800000000     0.677380000000     0.606190000000    -0.492006   
O134     O      0.497150000000     0.769300000000     0.575860000000    -0.879088   
O135     O      0.503920000000     0.706920000000     0.522780000000    -0.501344   
O136     O      0.421480000000     0.678950000000     0.543150000000    -0.484979   
O137     O      0.501960000000     0.836790000000     0.629460000000    -0.500686   
O138     O      0.426470000000     0.704300000000     0.626500000000    -0.48975    
O139     O      0.589420000000     0.786210000000     0.543640000000    -0.4924     
O140     O      0.588360000000     0.844210000000     0.609300000000    -0.489553   
O141     O      0.643960000000     0.975980000000     0.474130000000    -0.33566    
O142     O      0.148090000000     0.939360000000     0.536010000000    -0.236919   
O143     O      0.191980000000     0.735150000000     0.720420000000    -0.332539   
O144     O      0.183930000000     0.767070000000     0.783490000000    -0.240583   
O145     O      0.266960000000     0.569000000000     0.715470000000    -0.331561   
O146     O      0.307410000000     0.580860000000     0.778990000000    -0.237662   
O147     O      0.319700000000     0.627920000000     0.512560000000    -0.317905   
O148     O      0.344070000000     0.676350000000     0.452270000000    -0.219316   
O149     O      0.281530000000     0.726980000000     0.985480000000    -0.325953   
O150     O      0.333530000000     0.762550000000     0.543070000000    -0.232457   
O151     O      0.289730000000     0.751920000000     0.650830000000    -0.32119    
O152     O      0.343110000000     0.717200000000     0.661520000000    -0.226309   
O153     O      0.847370000000     0.361420000000     0.295650000000    -0.496895   
O154     O      0.768180000000     0.445340000000     0.377060000000    -0.502831   
O155     O      0.903670000000     0.443040000000     0.275450000000    -0.507581   
O156     O      0.908300000000     0.422260000000     0.359350000000    -0.491746   
O157     O      0.767850000000     0.366460000000     0.275240000000    -0.495084   
O158     O      0.848060000000     0.529270000000     0.355770000000    -0.487324   
O159     O      0.832150000000     0.437390000000     0.326080000000    -0.878761   
O160     O      0.825380000000     0.498670000000     0.273000000000    -0.492729   
O161     O      0.908410000000     0.528040000000     0.293100000000    -0.48701    
O162     O      0.825190000000     0.368780000000     0.378780000000    -0.507651   
O163     O      0.902850000000     0.502250000000     0.377210000000    -0.505247   
O164     O      0.739410000000     0.420570000000     0.294050000000    -0.49179    
O165     O      0.740010000000     0.362860000000     0.358650000000    -0.487863   
O166     O      0.981270000000     0.345640000000     0.045990000000    -0.491264   
O167     O      0.061510000000     0.261710000000     0.126790000000    -0.503617   
O168     O      0.926610000000     0.264120000000     0.024550000000    -0.487796   
O169     O      0.920120000000     0.283950000000     0.107790000000    -0.475733   
O170     O      0.061880000000     0.341590000000     0.026000000000    -0.492627   
O171     O      0.981800000000     0.177370000000     0.106190000000    -0.490787   
O172     O      0.997150000000     0.269300000000     0.075860000000    -0.877146   
O173     O      0.003920000000     0.206920000000     0.022770000000    -0.50263    
O174     O      0.921480000000     0.178950000000     0.043150000000    -0.485413   
O175     O      0.001960000000     0.336790000000     0.129460000000    -0.502063   
O176     O      0.926460000000     0.204300000000     0.126500000000    -0.489454   
O177     O      0.089420000000     0.286200000000     0.043640000000    -0.492042   
O178     O      0.088360000000     0.344210000000     0.109300000000    -0.489261   
O179     O      0.143960000000     0.475980000000     0.974130000000    -0.335732   
O180     O      0.648090000000     0.439360000000     0.036010000000    -0.236901   
O181     O      0.691980000000     0.235150000000     0.220420000000    -0.332325   
O182     O      0.683930000000     0.267070000000     0.283490000000    -0.240362   
O183     O      0.766960000000     0.069010000000     0.215470000000    -0.33154    
O184     O      0.807410000000     0.080860000000     0.278990000000    -0.237533   
O185     O      0.819700000000     0.127920000000     0.012560000000    -0.317958   
O186     O      0.844070000000     0.176350000000     0.952270000000    -0.219132   
O187     O      0.781530000000     0.226980000000     0.485480000000    -0.325944   
O188     O      0.833530000000     0.262550000000     0.043070000000    -0.232384   
O189     O      0.789720000000     0.251910000000     0.150830000000    -0.321251   
O190     O      0.843110000000     0.217200000000     0.161520000000    -0.226229   
O191     O      0.847370000000     0.361420000000     0.795650000000    -0.496896   
O192     O      0.768180000000     0.445340000000     0.877060000000    -0.502831   
O193     O      0.903670000000     0.443040000000     0.775450000000    -0.507582   
O194     O      0.908300000000     0.422260000000     0.859350000000    -0.491726   
O195     O      0.767850000000     0.366460000000     0.775240000000    -0.495046   
O196     O      0.848060000000     0.529270000000     0.855770000000    -0.487332   
O197     O      0.832150000000     0.437390000000     0.826080000000    -0.878765   
O198     O      0.825380000000     0.498670000000     0.773000000000    -0.492743   
O199     O      0.908410000000     0.528040000000     0.793100000000    -0.487011   
O200     O      0.825190000000     0.368780000000     0.878780000000    -0.507626   
O201     O      0.902850000000     0.502250000000     0.877210000000    -0.505245   
O202     O      0.739410000000     0.420570000000     0.794060000000    -0.49176    
O203     O      0.740010000000     0.362860000000     0.858650000000    -0.487854   
O204     O      0.981270000000     0.345640000000     0.545990000000    -0.491248   
O205     O      0.061510000000     0.261710000000     0.626790000000    -0.50364    
O206     O      0.926610000000     0.264120000000     0.524550000000    -0.487775   
O207     O      0.920120000000     0.283950000000     0.607790000000    -0.475733   
O208     O      0.061880000000     0.341590000000     0.526000000000    -0.492583   
O209     O      0.981800000000     0.177370000000     0.606190000000    -0.490793   
O210     O      0.997150000000     0.269300000000     0.575860000000    -0.877163   
O211     O      0.003920000000     0.206920000000     0.522780000000    -0.502738   
O212     O      0.921480000000     0.178950000000     0.543150000000    -0.485414   
O213     O      0.001960000000     0.336790000000     0.629460000000    -0.502065   
O214     O      0.926460000000     0.204300000000     0.626500000000    -0.489456   
O215     O      0.089420000000     0.286200000000     0.543640000000    -0.491964   
O216     O      0.088360000000     0.344210000000     0.609300000000    -0.489257   
O217     O      0.143960000000     0.475980000000     0.474130000000    -0.335719   
O218     O      0.648090000000     0.439360000000     0.536010000000    -0.236844   
O219     O      0.691980000000     0.235150000000     0.720420000000    -0.332399   
O220     O      0.683930000000     0.267070000000     0.783490000000    -0.240367   
O221     O      0.766960000000     0.069010000000     0.715470000000    -0.331539   
O222     O      0.807410000000     0.080860000000     0.778990000000    -0.237534   
O223     O      0.819700000000     0.127920000000     0.512560000000    -0.317952   
O224     O      0.844070000000     0.176350000000     0.452270000000    -0.219137   
O225     O      0.781530000000     0.226980000000     0.985480000000    -0.325851   
O226     O      0.833530000000     0.262550000000     0.543070000000    -0.232407   
O227     O      0.789720000000     0.251910000000     0.650830000000    -0.32125    
O228     O      0.843110000000     0.217200000000     0.661520000000    -0.226228   
O229     O      0.847370000000     0.861420000000     0.295650000000    -0.496894   
O230     O      0.768180000000     0.945340000000     0.377060000000    -0.502838   
O231     O      0.903670000000     0.943040000000     0.275450000000    -0.507609   
O232     O      0.908300000000     0.922270000000     0.359350000000    -0.49183    
O233     O      0.767850000000     0.866460000000     0.275240000000    -0.495086   
O234     O      0.848060000000     0.029270000000     0.355770000000    -0.487272   
O235     O      0.832150000000     0.937390000000     0.326080000000    -0.878605   
O236     O      0.825380000000     0.998670000000     0.273000000000    -0.492748   
O237     O      0.908420000000     0.028040000000     0.293100000000    -0.486864   
O238     O      0.825190000000     0.868780000000     0.378780000000    -0.507636   
O239     O      0.902850000000     0.002250000000     0.377210000000    -0.505142   
O240     O      0.739410000000     0.920570000000     0.294050000000    -0.491786   
O241     O      0.740010000000     0.862860000000     0.358650000000    -0.487858   
O242     O      0.981270000000     0.845640000000     0.045990000000    -0.491339   
O243     O      0.061510000000     0.761710000000     0.126790000000    -0.503623   
O244     O      0.926610000000     0.764130000000     0.024550000000    -0.487955   
O245     O      0.920120000000     0.783950000000     0.107790000000    -0.475842   
O246     O      0.061880000000     0.841580000000     0.026000000000    -0.492781   
O247     O      0.981800000000     0.677380000000     0.106190000000    -0.490951   
O248     O      0.997150000000     0.769300000000     0.075860000000    -0.877142   
O249     O      0.003920000000     0.706920000000     0.022770000000    -0.502635   
O250     O      0.921480000000     0.678950000000     0.043150000000    -0.485315   
O251     O      0.001960000000     0.836790000000     0.129460000000    -0.502083   
O252     O      0.926470000000     0.704300000000     0.126500000000    -0.489523   
O253     O      0.089420000000     0.786210000000     0.043640000000    -0.492196   
O254     O      0.088360000000     0.844210000000     0.109300000000    -0.489263   
O255     O      0.143960000000     0.975980000000     0.974130000000    -0.335807   
O256     O      0.648090000000     0.939360000000     0.036010000000    -0.236932   
O257     O      0.691980000000     0.735150000000     0.220420000000    -0.332381   
O258     O      0.683930000000     0.767070000000     0.283490000000    -0.240389   
O259     O      0.766960000000     0.569000000000     0.215470000000    -0.331469   
O260     O      0.807410000000     0.580860000000     0.278990000000    -0.237559   
O261     O      0.819700000000     0.627920000000     0.012560000000    -0.317882   
O262     O      0.844070000000     0.676350000000     0.952270000000    -0.219198   
O263     O      0.781530000000     0.726980000000     0.485480000000    -0.326008   
O264     O      0.833530000000     0.762550000000     0.043070000000    -0.232397   
O265     O      0.789720000000     0.751920000000     0.150830000000    -0.321124   
O266     O      0.843110000000     0.717200000000     0.161520000000    -0.226214   
O267     O      0.847370000000     0.861420000000     0.795650000000    -0.496895   
O268     O      0.768180000000     0.945340000000     0.877060000000    -0.502838   
O269     O      0.903670000000     0.943040000000     0.775450000000    -0.50761    
O270     O      0.908300000000     0.922270000000     0.859350000000    -0.49181    
O271     O      0.767850000000     0.866460000000     0.775240000000    -0.495047   
O272     O      0.848060000000     0.029270000000     0.855770000000    -0.48728    
O273     O      0.832150000000     0.937390000000     0.826080000000    -0.878609   
O274     O      0.825380000000     0.998670000000     0.773000000000    -0.492763   
O275     O      0.908420000000     0.028040000000     0.793100000000    -0.486866   
O276     O      0.825190000000     0.868780000000     0.878780000000    -0.507612   
O277     O      0.902850000000     0.002250000000     0.877210000000    -0.505141   
O278     O      0.739410000000     0.920570000000     0.794060000000    -0.491756   
O279     O      0.740010000000     0.862860000000     0.858650000000    -0.48785    
O280     O      0.981270000000     0.845640000000     0.545990000000    -0.491323   
O281     O      0.061510000000     0.761710000000     0.626790000000    -0.503645   
O282     O      0.926610000000     0.764130000000     0.524550000000    -0.487934   
O283     O      0.920120000000     0.783950000000     0.607790000000    -0.475842   
O284     O      0.061880000000     0.841580000000     0.526000000000    -0.492737   
O285     O      0.981800000000     0.677380000000     0.606190000000    -0.490957   
O286     O      0.997150000000     0.769300000000     0.575860000000    -0.877159   
O287     O      0.003920000000     0.706920000000     0.522780000000    -0.502743   
O288     O      0.921480000000     0.678950000000     0.543150000000    -0.485317   
O289     O      0.001960000000     0.836790000000     0.629460000000    -0.502084   
O290     O      0.926470000000     0.704300000000     0.626500000000    -0.489525   
O291     O      0.089420000000     0.786210000000     0.543640000000    -0.492117   
O292     O      0.088360000000     0.844210000000     0.609300000000    -0.489259   
O293     O      0.143960000000     0.975980000000     0.474130000000    -0.335793   
O294     O      0.648090000000     0.939360000000     0.536010000000    -0.236874   
O295     O      0.691980000000     0.735150000000     0.720420000000    -0.332455   
O296     O      0.683930000000     0.767070000000     0.783490000000    -0.240394   
O297     O      0.766960000000     0.569000000000     0.715470000000    -0.33154    
O298     O      0.807410000000     0.580860000000     0.778990000000    -0.237568   
O299     O      0.819700000000     0.627920000000     0.512560000000    -0.317875   
O300     O      0.844070000000     0.676350000000     0.452270000000    -0.219203   
O301     O      0.781530000000     0.726980000000     0.985480000000    -0.325914   
O302     O      0.833530000000     0.762550000000     0.543070000000    -0.23242    
O303     O      0.789720000000     0.751920000000     0.650830000000    -0.321124   
O304     O      0.843110000000     0.717200000000     0.661520000000    -0.226214   


