data_structure

_audit_creation_method RASPA-1.0
_audit_creation_date 2023-5-23
_audit_author_name 'Poobodin Mano'

_cell_length_a    27.2742
_cell_length_b    27.274
_cell_length_c    27.2738
_cell_angle_alpha 90.1045
_cell_angle_beta  90.0001
_cell_angle_gamma 89.9654
_cell_volume      20288.3

_symmetry_cell_setting          triclinic
_symmetry_space_group_name_Hall 'P 1'
_symmetry_space_group_name_H-M  'P 1'
_symmetry_Int_Tables_number     1

_symmetry_equiv_pos_as_xyz 'x,y,z'

loop_
_atom_site_label
_atom_site_type_symbol
_atom_site_fract_x
_atom_site_fract_y
_atom_site_fract_z
_atom_site_charge
C1       C      0.246000000000     0.619880000000     0.339320000000     0.529377   
C2       C      0.336390000000     0.623040000000     0.243570000000     0.536757   
C3       C      0.247230000000     0.544430000000     0.153220000000     0.533936   
C4       C      0.243950000000     0.472000000000     0.335840000000     0.536732   
C5       C      0.339700000000     0.475180000000     0.245480000000     0.529256   
C6       C      0.153680000000     0.550650000000     0.246780000000     0.533785   
C7       C      0.765800000000     0.619800000000     0.245750000000     0.529406   
C8       C      0.861560000000     0.622810000000     0.336150000000     0.536926   
C9       C      0.951740000000     0.544190000000     0.246710000000     0.534065   
C10      C      0.768980000000     0.471920000000     0.243260000000     0.536905   
C11      C      0.859360000000     0.474970000000     0.338990000000     0.529276   
C12      C      0.858190000000     0.550620000000     0.153210000000     0.53368    
C13      C      0.625040000000     0.854140000000     0.339370000000     0.529194   
C14      C      0.628120000000     0.763670000000     0.243550000000     0.537001   
C15      C      0.549460000000     0.852940000000     0.153420000000     0.533934   
C16      C      0.477140000000     0.856420000000     0.336220000000     0.537019   
C17      C      0.480240000000     0.760600000000     0.245770000000     0.529207   
C18      C      0.555830000000     0.946510000000     0.247000000000     0.533791   
C19      C      0.480380000000     0.241000000000     0.338890000000     0.529389   
C20      C      0.477370000000     0.331320000000     0.243220000000     0.536983   
C21      C      0.556010000000     0.241950000000     0.153000000000     0.533892   
C22      C      0.628240000000     0.238650000000     0.335800000000     0.53686    
C23      C      0.625210000000     0.334310000000     0.245490000000     0.529169   
C24      C      0.549570000000     0.148470000000     0.246500000000     0.533945   
C25      C      0.625190000000     0.241120000000     0.765070000000     0.529359   
C26      C      0.628340000000     0.331580000000     0.860880000000     0.536906   
C27      C      0.549670000000     0.242440000000     0.951050000000     0.53395    
C28      C      0.477310000000     0.239030000000     0.768280000000     0.536812   
C29      C      0.480460000000     0.334850000000     0.858730000000     0.529115   
C30      C      0.555970000000     0.148840000000     0.857480000000     0.534159   
C31      C      0.859430000000     0.334650000000     0.624360000000     0.529506   
C32      C      0.769070000000     0.238910000000     0.627470000000     0.537035   
C33      C      0.858320000000     0.148580000000     0.548880000000     0.53386    
C34      C      0.861580000000     0.331200000000     0.476480000000     0.53688    
C35      C      0.765870000000     0.240870000000     0.479630000000     0.529384   
C36      C      0.951830000000     0.242130000000     0.555140000000     0.533865   
C37      C      0.339680000000     0.241250000000     0.624440000000     0.529031   
C38      C      0.243900000000     0.331690000000     0.627450000000     0.536988   
C39      C      0.153770000000     0.242240000000     0.548800000000     0.533936   
C40      C      0.336590000000     0.238770000000     0.476550000000     0.537043   
C41      C      0.246170000000     0.334510000000     0.479600000000     0.529103   
C42      C      0.247330000000     0.148730000000     0.555270000000     0.533754   
C43      C      0.246160000000     0.475600000000     0.765230000000     0.529185   
C44      C      0.336550000000     0.472510000000     0.860990000000     0.537103   
C45      C      0.247250000000     0.551100000000     0.951300000000     0.534221   
C46      C      0.243920000000     0.623490000000     0.768670000000     0.537125   
C47      C      0.339650000000     0.620350000000     0.859030000000     0.52926    
C48      C      0.153740000000     0.544810000000     0.857720000000     0.533835   
C49      C      0.339500000000     0.854180000000     0.480050000000     0.529251   
C50      C      0.243770000000     0.763800000000     0.477080000000     0.536864   
C51      C      0.153630000000     0.853280000000     0.555710000000     0.534095   
C52      C      0.336450000000     0.856690000000     0.627930000000     0.537119   
C53      C      0.246090000000     0.760990000000     0.624920000000     0.529066   
C54      C      0.247170000000     0.946760000000     0.549240000000     0.533801   
C55      C      0.859330000000     0.760570000000     0.480100000000     0.529512   
C56      C      0.768930000000     0.856350000000     0.476960000000     0.536879   
C57      C      0.858150000000     0.946660000000     0.555560000000     0.534049   
C58      C      0.861480000000     0.764040000000     0.627990000000     0.536956   
C59      C      0.765720000000     0.854420000000     0.624820000000     0.529313   
C60      C      0.951690000000     0.853070000000     0.549330000000     0.533691   
C61      C      0.480270000000     0.854460000000     0.765570000000     0.529445   
C62      C      0.477220000000     0.764170000000     0.861250000000     0.537131   
C63      C      0.555850000000     0.853400000000     0.951480000000     0.53387    
C64      C      0.628120000000     0.856630000000     0.768700000000     0.536935   
C65      C      0.625070000000     0.760950000000     0.858990000000     0.529152   
C66      C      0.549500000000     0.946900000000     0.857980000000     0.533898   
C67      C      0.859310000000     0.620270000000     0.765470000000     0.529031   
C68      C      0.768910000000     0.623260000000     0.861200000000     0.537171   
C69      C      0.858240000000     0.544570000000     0.951230000000     0.53382    
C70      C      0.861700000000     0.472410000000     0.768270000000     0.536953   
C71      C      0.765940000000     0.475380000000     0.858660000000     0.529174   
C72      C      0.951780000000     0.551070000000     0.857740000000     0.534044   
C73      C      0.648160000000     0.677590000000     0.850040000000     0.0347999  
C74      C      0.698900000000     0.731370000000     0.895100000000     0.0360153  
C75      C      0.735320000000     0.695210000000     0.897600000000     0.0364697  
C76      C      0.685560000000     0.642820000000     0.849910000000     0.0377662  
C77      C      0.897760000000     0.730570000000     0.699920000000     0.0364837  
C78      C      0.850250000000     0.680710000000     0.647470000000     0.0377924  
C79      C      0.850400000000     0.643330000000     0.682160000000     0.0347548  
C80      C      0.895280000000     0.694160000000     0.736020000000     0.0360019  
C81      C      0.682400000000     0.845400000000     0.647920000000     0.0347429  
C82      C      0.736060000000     0.890570000000     0.698680000000     0.0360593  
C83      C      0.699930000000     0.893040000000     0.735130000000     0.0364588  
C84      C      0.647680000000     0.845250000000     0.685340000000     0.0378545  
C85      C      0.028460000000     0.847680000000     0.508350000000     0.0355249  
C86      C      0.025720000000     0.849540000000     0.594860000000     0.0368313  
C87      C      0.076870000000     0.847940000000     0.596690000000     0.0355532  
C88      C      0.079600000000     0.849410000000     0.510180000000     0.0368542  
C89      C      0.370000000000     0.893080000000     0.699870000000     0.0364526  
C90      C      0.419800000000     0.845390000000     0.647470000000     0.0378086  
C91      C      0.457190000000     0.845520000000     0.682210000000     0.0347882  
C92      C      0.406430000000     0.890580000000     0.736020000000     0.0360753  
C93      C      0.077020000000     0.503800000000     0.852260000000     0.0355701  
C94      C      0.079650000000     0.590300000000     0.854150000000     0.0368124  
C95      C      0.028500000000     0.592100000000     0.852490000000     0.0355761  
C96      C      0.025870000000     0.505590000000     0.853930000000     0.0367805  
C97      C      0.369250000000     0.694210000000     0.895160000000     0.0360446  
C98      C      0.422970000000     0.643420000000     0.850020000000     0.0347539  
C99      C      0.457680000000     0.680820000000     0.849880000000     0.0378393  
C100     C      0.405370000000     0.730650000000     0.897640000000     0.0364018  
C101     C      0.207610000000     0.695430000000     0.735210000000     0.0364487  
C102     C      0.255170000000     0.642980000000     0.685340000000     0.0378079  
C103     C      0.255020000000     0.677680000000     0.647960000000     0.034769   
C104     C      0.210090000000     0.731530000000     0.698800000000     0.0360629  
C105     C      0.252590000000     0.072100000000     0.596380000000     0.0355434  
C106     C      0.250960000000     0.074530000000     0.509870000000     0.0368677  
C107     C      0.252570000000     0.023370000000     0.508130000000     0.0354137  
C108     C      0.250870000000     0.020950000000     0.594640000000     0.0366546  
C109     C      0.255230000000     0.415040000000     0.647080000000     0.0377686  
C110     C      0.207530000000     0.365350000000     0.699350000000     0.0364866  
C111     C      0.210020000000     0.401810000000     0.735530000000     0.0360577  
C112     C      0.255090000000     0.452470000000     0.681860000000     0.0348474  
C113     C      0.852810000000     0.023570000000     0.596430000000     0.0354304  
C114     C      0.854440000000     0.020540000000     0.509930000000     0.0366661  
C115     C      0.852830000000     0.071680000000     0.508020000000     0.0355942  
C116     C      0.854530000000     0.074700000000     0.594520000000     0.0368199  
C117     C      0.025860000000     0.245730000000     0.509610000000     0.0367823  
C118     C      0.028580000000     0.247660000000     0.596120000000     0.035552   
C119     C      0.079730000000     0.246030000000     0.594300000000     0.0368083  
C120     C      0.077010000000     0.247430000000     0.507790000000     0.0355995  
C121     C      0.850510000000     0.418020000000     0.647480000000     0.0348568  
C122     C      0.895600000000     0.364340000000     0.698160000000     0.036046   
C123     C      0.898100000000     0.400520000000     0.734610000000     0.0364933  
C124     C      0.850380000000     0.452800000000     0.684900000000     0.0377445  
C125     C      0.596930000000     0.072010000000     0.852330000000     0.0356152  
C126     C      0.510430000000     0.074840000000     0.853880000000     0.0368654  
C127     C      0.508580000000     0.023690000000     0.852380000000     0.0353909  
C128     C      0.595080000000     0.020870000000     0.854150000000     0.0366642  
C129     C      0.406630000000     0.364530000000     0.894840000000     0.0360726  
C130     C      0.457330000000     0.418170000000     0.849770000000     0.0347648  
C131     C      0.419900000000     0.452910000000     0.849630000000     0.0377911  
C132     C      0.370170000000     0.400680000000     0.897330000000     0.0364646  
C133     C      0.423020000000     0.250130000000     0.647540000000     0.0347636  
C134     C      0.369240000000     0.205240000000     0.698270000000     0.0360551  
C135     C      0.405390000000     0.202740000000     0.734700000000     0.0364552  
C136     C      0.457760000000     0.250270000000     0.684940000000     0.0377787  
C137     C      0.700300000000     0.365120000000     0.897140000000     0.0364723  
C138     C      0.647880000000     0.414900000000     0.849650000000     0.037807   
C139     C      0.682610000000     0.452290000000     0.849780000000     0.0347591  
C140     C      0.736430000000     0.401540000000     0.894640000000     0.0360922  
C141     C      0.648300000000     0.250120000000     0.681770000000     0.0347461  
C142     C      0.699040000000     0.205020000000     0.735410000000     0.0360458  
C143     C      0.735490000000     0.202560000000     0.699280000000     0.0364842  
C144     C      0.685730000000     0.250280000000     0.647050000000     0.0378365  
C145     C      0.596980000000     0.247490000000     0.076260000000     0.0355417  
C146     C      0.510480000000     0.245800000000     0.078970000000     0.0368559  
C147     C      0.508660000000     0.247620000000     0.027830000000     0.0355058  
C148     C      0.595170000000     0.245980000000     0.025110000000     0.0368143  
C149     C      0.457320000000     0.249900000000     0.422260000000     0.0347505  
C150     C      0.406560000000     0.204930000000     0.368420000000     0.0360661  
C151     C      0.370140000000     0.202420000000     0.404580000000     0.0365004  
C152     C      0.419930000000     0.250020000000     0.457010000000     0.0378153  
C153     C      0.647800000000     0.250030000000     0.419150000000     0.0377807  
C154     C      0.700100000000     0.202230000000     0.369350000000     0.0364117  
C155     C      0.736240000000     0.204710000000     0.405790000000     0.0360982  
C156     C      0.682540000000     0.249880000000     0.456560000000     0.0348034  
C157     C      0.596870000000     0.023250000000     0.252140000000     0.035343   
C158     C      0.510360000000     0.020620000000     0.250570000000     0.036654   
C159     C      0.508570000000     0.071770000000     0.252070000000     0.0355836  
C160     C      0.595070000000     0.074390000000     0.250310000000     0.0369033  
C161     C      0.594970000000     0.849300000000     0.079370000000     0.0368042  
C162     C      0.508460000000     0.847820000000     0.076630000000     0.0355186  
C163     C      0.510300000000     0.849630000000     0.025490000000     0.0368758  
C164     C      0.596800000000     0.847790000000     0.028230000000     0.0355616  
C165     C      0.648170000000     0.845200000000     0.422680000000     0.0347655  
C166     C      0.698890000000     0.890180000000     0.368990000000     0.0361331  
C167     C      0.735340000000     0.892660000000     0.405110000000     0.0364083  
C168     C      0.685590000000     0.845050000000     0.457400000000     0.0378392  
C169     C      0.457610000000     0.845210000000     0.419560000000     0.0377384  
C170     C      0.405170000000     0.892700000000     0.369790000000     0.0365437  
C171     C      0.369020000000     0.890190000000     0.406210000000     0.0360119  
C172     C      0.422860000000     0.845330000000     0.456950000000     0.0348409  
C173     C      0.852840000000     0.591720000000     0.076570000000     0.0355412  
C174     C      0.854570000000     0.505210000000     0.079010000000     0.0367968  
C175     C      0.852920000000     0.503460000000     0.027860000000     0.0354998  
C176     C      0.854510000000     0.589980000000     0.025420000000     0.0367954  
C177     C      0.850430000000     0.451910000000     0.422300000000     0.034771   
C178     C      0.895390000000     0.401080000000     0.368470000000     0.03608    
C179     C      0.897880000000     0.364660000000     0.404570000000     0.0364196  
C180     C      0.850290000000     0.414540000000     0.456990000000     0.0377576  
C181     C      0.685640000000     0.452400000000     0.254520000000     0.0377874  
C182     C      0.735470000000     0.399950000000     0.206910000000     0.0364202  
C183     C      0.699050000000     0.363820000000     0.209420000000     0.0360868  
C184     C      0.648260000000     0.417670000000     0.254400000000     0.0347731  
C185     C      0.736210000000     0.693620000000     0.209730000000     0.036104   
C186     C      0.682450000000     0.642920000000     0.254650000000     0.0348633  
C187     C      0.647690000000     0.680330000000     0.254790000000     0.0377203  
C188     C      0.700060000000     0.730060000000     0.207230000000     0.0364514  
C189     C      0.897960000000     0.694660000000     0.369820000000     0.0364478  
C190     C      0.850200000000     0.642450000000     0.419510000000     0.037789   
C191     C      0.850360000000     0.677210000000     0.456960000000     0.034812   
C192     C      0.895480000000     0.730840000000     0.406300000000     0.0360889  
C193     C      0.076870000000     0.591590000000     0.252240000000     0.0355667  
C194     C      0.079690000000     0.505090000000     0.250350000000     0.0368297  
C195     C      0.028550000000     0.503230000000     0.252000000000     0.0355295  
C196     C      0.025730000000     0.589740000000     0.250550000000     0.0368157  
C197     C      0.251020000000     0.505470000000     0.025190000000     0.0368283  
C198     C      0.252610000000     0.591970000000     0.028200000000     0.0356101  
C199     C      0.250940000000     0.590070000000     0.079340000000     0.0367917  
C200     C      0.252680000000     0.503560000000     0.076330000000     0.0355396  
C201     C      0.369380000000     0.401350000000     0.209290000000     0.0360612  
C202     C      0.423030000000     0.452090000000     0.254490000000     0.0348193  
C203     C      0.457780000000     0.414670000000     0.254630000000     0.0377768  
C204     C      0.405530000000     0.364900000000     0.206810000000     0.0364694  
C205     C      0.207670000000     0.400100000000     0.369300000000     0.0364965  
C206     C      0.255220000000     0.452510000000     0.419170000000     0.0377326  
C207     C      0.255080000000     0.417820000000     0.456550000000     0.0347996  
C208     C      0.210160000000     0.364000000000     0.405720000000     0.0360183  
C209     C      0.419720000000     0.642600000000     0.254920000000     0.037758   
C210     C      0.369930000000     0.694880000000     0.207260000000     0.0364153  
C211     C      0.406380000000     0.730990000000     0.209730000000     0.0361126  
C212     C      0.457130000000     0.677300000000     0.254750000000     0.0347745  
C213     C      0.209820000000     0.693680000000     0.369050000000     0.0360862  
C214     C      0.254980000000     0.643010000000     0.422680000000     0.0348681  
C215     C      0.255130000000     0.680440000000     0.457450000000     0.0377526  
C216     C      0.207340000000     0.730150000000     0.405220000000     0.0364218  
Fe1      Fe     0.239400000000     0.601140000000     0.238420000000     1.35647    
Fe2      Fe     0.238820000000     0.493920000000     0.238880000000     1.35622    
Fe3      Fe     0.303880000000     0.547530000000     0.303430000000     1.37837    
Fe4      Fe     0.866660000000     0.600990000000     0.239110000000     1.35656    
Fe5      Fe     0.865970000000     0.493770000000     0.238150000000     1.35598    
Fe6      Fe     0.801550000000     0.547390000000     0.303400000000     1.37868    
Fe7      Fe     0.606250000000     0.860680000000     0.238510000000     1.35637    
Fe8      Fe     0.499030000000     0.861460000000     0.239220000000     1.35619    
Fe9      Fe     0.552640000000     0.796360000000     0.303580000000     1.37866    
Fe10     Fe     0.499190000000     0.234300000000     0.238030000000     1.35628    
Fe11     Fe     0.606400000000     0.233460000000     0.238800000000     1.35634    
Fe12     Fe     0.552800000000     0.298710000000     0.303240000000     1.37847    
Fe13     Fe     0.606440000000     0.234590000000     0.865950000000     1.35625    
Fe14     Fe     0.499220000000     0.233980000000     0.865270000000     1.35638    
Fe15     Fe     0.552820000000     0.299000000000     0.800890000000     1.37849    
Fe16     Fe     0.866060000000     0.233760000000     0.605590000000     1.35662    
Fe17     Fe     0.866740000000     0.234240000000     0.498380000000     1.35594    
Fe18     Fe     0.801620000000     0.298800000000     0.552000000000     1.37865    
Fe19     Fe     0.238820000000     0.234650000000     0.605620000000     1.35652    
Fe20     Fe     0.239590000000     0.233680000000     0.498400000000     1.35604    
Fe21     Fe     0.303950000000     0.298910000000     0.552020000000     1.37857    
Fe22     Fe     0.239540000000     0.494370000000     0.866120000000     1.35644    
Fe23     Fe     0.238780000000     0.601590000000     0.865630000000     1.3561     
Fe24     Fe     0.303930000000     0.547970000000     0.801100000000     1.37866    
Fe25     Fe     0.238660000000     0.860850000000     0.498880000000     1.35638    
Fe26     Fe     0.239440000000     0.861830000000     0.606100000000     1.3562     
Fe27     Fe     0.303840000000     0.796550000000     0.552480000000     1.37847    
Fe28     Fe     0.865930000000     0.861460000000     0.498860000000     1.35637    
Fe29     Fe     0.866590000000     0.861000000000     0.606070000000     1.3561     
Fe30     Fe     0.801500000000     0.796470000000     0.552460000000     1.37847    
Fe31     Fe     0.499060000000     0.861160000000     0.866430000000     1.35617    
Fe32     Fe     0.606270000000     0.861820000000     0.865700000000     1.35639    
Fe33     Fe     0.552670000000     0.796660000000     0.801230000000     1.37849    
Fe34     Fe     0.865930000000     0.601440000000     0.866300000000     1.35615    
Fe35     Fe     0.866780000000     0.494220000000     0.865310000000     1.35638    
Fe36     Fe     0.801590000000     0.547820000000     0.801030000000     1.3785     
H1       H      0.614560000000     0.669000000000     0.830570000000     0.0327454  
H2       H      0.705900000000     0.766440000000     0.912540000000     0.0340509  
H3       H      0.769560000000     0.703770000000     0.915930000000     0.0303259  
H4       H      0.679290000000     0.608520000000     0.830670000000     0.0328396  
H5       H      0.916030000000     0.764830000000     0.708530000000     0.0303275  
H6       H      0.831080000000     0.674390000000     0.613150000000     0.0328803  
H7       H      0.831010000000     0.609700000000     0.673520000000     0.0327851  
H8       H      0.912660000000     0.701210000000     0.771100000000     0.0340585  
H9       H      0.673850000000     0.825900000000     0.614300000000     0.0327589  
H10      H      0.771070000000     0.908070000000     0.705690000000     0.0340639  
H11      H      0.708460000000     0.911420000000     0.769380000000     0.0303764  
H12      H      0.613440000000     0.825960000000     0.679050000000     0.0328404  
H13      H      0.010800000000     0.847430000000     0.472730000000     0.0329476  
H14      H      0.005740000000     0.849950000000     0.629250000000     0.035023   
H15      H      0.094540000000     0.847900000000     0.632320000000     0.0329397  
H16      H      0.099580000000     0.849700000000     0.475790000000     0.0349949  
H17      H      0.335750000000     0.911410000000     0.708440000000     0.030352   
H18      H      0.426090000000     0.826150000000     0.613160000000     0.0328494  
H19      H      0.490810000000     0.826040000000     0.673610000000     0.0327686  
H20      H      0.399410000000     0.908020000000     0.771090000000     0.0340469  
H21      H      0.094730000000     0.468180000000     0.852020000000     0.0329202  
H22      H      0.099590000000     0.624700000000     0.854590000000     0.0350011  
H23      H      0.010790000000     0.627720000000     0.852450000000     0.032924   
H24      H      0.005940000000     0.471190000000     0.854190000000     0.0350176  
H25      H      0.334220000000     0.701240000000     0.912640000000     0.0340414  
H26      H      0.431540000000     0.609790000000     0.830530000000     0.0327649  
H27      H      0.491940000000     0.674520000000     0.830610000000     0.0328396  
H28      H      0.396820000000     0.764900000000     0.916000000000     0.030358   
H29      H      0.189320000000     0.704030000000     0.769480000000     0.0303432  
H30      H      0.274360000000     0.608660000000     0.679010000000     0.03287    
H31      H      0.274440000000     0.669030000000     0.614330000000     0.032783   
H32      H      0.192690000000     0.766610000000     0.705860000000     0.0340547  
H33      H      0.252730000000     0.089890000000     0.631970000000     0.0328989  
H34      H      0.250650000000     0.094380000000     0.475440000000     0.0349754  
H35      H      0.252710000000     0.005580000000     0.472540000000     0.0329183  
H36      H      0.250490000000     0.001090000000     0.629070000000     0.0349781  
H37      H      0.274470000000     0.421270000000     0.612820000000     0.0328406  
H38      H      0.189180000000     0.331140000000     0.707860000000     0.0303435  
H39      H      0.192580000000     0.394840000000     0.770570000000     0.0340379  
H40      H      0.274580000000     0.486050000000     0.673330000000     0.0327226  
H41      H      0.852660000000     0.006020000000     0.632080000000     0.0328784  
H42      H      0.854770000000     0.000450000000     0.475570000000     0.0349673  
H43      H      0.852700000000     0.089230000000     0.472360000000     0.0328978  
H44      H      0.854910000000     0.094800000000     0.628880000000     0.034972   
H45      H      0.005890000000     0.245260000000     0.475220000000     0.0350159  
H46      H      0.010910000000     0.247900000000     0.631740000000     0.0329427  
H47      H      0.099690000000     0.245810000000     0.628700000000     0.034994   
H48      H      0.094690000000     0.247480000000     0.472170000000     0.0329017  
H49      H      0.831020000000     0.426560000000     0.613890000000     0.0327225  
H50      H      0.913060000000     0.329300000000     0.705130000000     0.0340287  
H51      H      0.916460000000     0.392000000000     0.768830000000     0.0303177  
H52      H      0.831130000000     0.487070000000     0.678660000000     0.0328383  
H53      H      0.632560000000     0.089650000000     0.852180000000     0.0328426  
H54      H      0.476040000000     0.094850000000     0.854130000000     0.0349681  
H55      H      0.472940000000     0.006060000000     0.852240000000     0.0329298  
H56      H      0.629460000000     0.000860000000     0.854610000000     0.0349558  
H57      H      0.399640000000     0.329530000000     0.912300000000     0.0340407  
H58      H      0.490920000000     0.426700000000     0.830300000000     0.0327453  
H59      H      0.426150000000     0.487150000000     0.830390000000     0.0328531  
H60      H      0.335950000000     0.392160000000     0.915670000000     0.0303528  
H61      H      0.431610000000     0.269530000000     0.613940000000     0.0327674  
H62      H      0.334180000000     0.187870000000     0.705270000000     0.0340504  
H63      H      0.396820000000     0.184480000000     0.768930000000     0.0303305  
H64      H      0.492050000000     0.269440000000     0.678670000000     0.0328685  
H65      H      0.708890000000     0.330880000000     0.915410000000     0.0303115  
H66      H      0.613570000000     0.421190000000     0.830490000000     0.0328532  
H67      H      0.673990000000     0.485900000000     0.830390000000     0.0327648  
H68      H      0.771510000000     0.394520000000     0.912010000000     0.0340301  
H69      H      0.614690000000     0.269590000000     0.673230000000     0.0327472  
H70      H      0.706040000000     0.187550000000     0.770410000000     0.0340423  
H71      H      0.769730000000     0.184210000000     0.707800000000     0.030345   
H72      H      0.679450000000     0.269540000000     0.612820000000     0.0328344  
H73      H      0.632610000000     0.247590000000     0.093940000000     0.0329567  
H74      H      0.476090000000     0.245380000000     0.098940000000     0.0349802  
H75      H      0.473040000000     0.247800000000     0.010150000000     0.0329219  
H76      H      0.629560000000     0.245700000000     0.005140000000     0.0350144  
H77      H      0.490920000000     0.269340000000     0.430870000000     0.0327805  
H78      H      0.399530000000     0.187520000000     0.333330000000     0.0340284  
H79      H      0.335900000000     0.184120000000     0.395990000000     0.0303039  
H80      H      0.426220000000     0.269230000000     0.491340000000     0.0328459  
H81      H      0.613540000000     0.269310000000     0.425450000000     0.0328435  
H82      H      0.708630000000     0.183850000000     0.335100000000     0.0303576  
H83      H      0.771270000000     0.187220000000     0.398760000000     0.0340204  
H84      H      0.673970000000     0.269400000000     0.490170000000     0.0327332  
H85      H      0.632480000000     0.005540000000     0.252290000000     0.0328855  
H86      H      0.475960000000     0.000690000000     0.250310000000     0.0349936  
H87      H      0.472950000000     0.089480000000     0.252200000000     0.0329262  
H88      H      0.629480000000     0.094330000000     0.249870000000     0.034954   
H89      H      0.629360000000     0.849530000000     0.099350000000     0.0350148  
H90      H      0.472840000000     0.847690000000     0.094310000000     0.0329177  
H91      H      0.475910000000     0.850100000000     0.005510000000     0.0349989  
H92      H      0.632430000000     0.847620000000     0.010560000000     0.0329735  
H93      H      0.614560000000     0.825760000000     0.431240000000     0.0327521  
H94      H      0.705880000000     0.907610000000     0.333970000000     0.0340599  
H95      H      0.769570000000     0.910970000000     0.396580000000     0.0303999  
H96      H      0.679320000000     0.825830000000     0.491650000000     0.0328549  
H97      H      0.491930000000     0.826050000000     0.425830000000     0.0328897  
H98      H      0.396590000000     0.910970000000     0.335560000000     0.030331   
H99      H      0.333940000000     0.907560000000     0.399200000000     0.0340793  
H100     H      0.431480000000     0.825930000000     0.490550000000     0.0327683  
H101     H      0.852660000000     0.627320000000     0.094360000000     0.0329302  
H102     H      0.854950000000     0.470790000000     0.098870000000     0.0350045  
H103     H      0.852820000000     0.467870000000     0.010070000000     0.0329565  
H104     H      0.854840000000     0.624400000000     0.005570000000     0.0350214  
H105     H      0.831000000000     0.485550000000     0.430930000000     0.0327816  
H106     H      0.912810000000     0.394020000000     0.333410000000     0.0340322  
H107     H      0.916180000000     0.330400000000     0.395970000000     0.0303396  
H108     H      0.831090000000     0.420870000000     0.491290000000     0.0328831  
H109     H      0.679340000000     0.486730000000     0.273730000000     0.0328687  
H110     H      0.769720000000     0.391360000000     0.188610000000     0.0303354  
H111     H      0.706090000000     0.328730000000     0.192010000000     0.0340376  
H112     H      0.614650000000     0.426300000000     0.273850000000     0.0327857  
H113     H      0.771270000000     0.700620000000     0.192330000000     0.0340269  
H114     H      0.673870000000     0.609330000000     0.274070000000     0.0327418  
H115     H      0.613400000000     0.674080000000     0.273970000000     0.0328685  
H116     H      0.708620000000     0.764280000000     0.188950000000     0.0303437  
H117     H      0.916330000000     0.703150000000     0.335610000000     0.0303565  
H118     H      0.830940000000     0.608210000000     0.425740000000     0.0328355  
H119     H      0.830860000000     0.668700000000     0.490540000000     0.0327216  
H120     H      0.912960000000     0.765850000000     0.399330000000     0.0340273  
H121     H      0.094500000000     0.627220000000     0.252480000000     0.0329228  
H122     H      0.099710000000     0.470700000000     0.249920000000     0.0349934  
H123     H      0.010920000000     0.467600000000     0.252040000000     0.0329375  
H124     H      0.005720000000     0.624120000000     0.250290000000     0.0350107  
H125     H      0.250700000000     0.471110000000     0.005100000000     0.0350024  
H126     H      0.252720000000     0.627620000000     0.010650000000     0.0329127  
H127     H      0.250560000000     0.624430000000     0.099430000000     0.0349997  
H128     H      0.252850000000     0.467910000000     0.093880000000     0.0329183  
H129     H      0.334360000000     0.394350000000     0.191790000000     0.034046   
H130     H      0.431570000000     0.485700000000     0.274020000000     0.0327274  
H131     H      0.492020000000     0.420940000000     0.273920000000     0.0328418  
H132     H      0.397020000000     0.330670000000     0.188410000000     0.0303549  
H133     H      0.189390000000     0.391510000000     0.335030000000     0.0303411  
H134     H      0.274400000000     0.486810000000     0.425490000000     0.0328976  
H135     H      0.274490000000     0.426450000000     0.490180000000     0.0327734  
H136     H      0.192770000000     0.328940000000     0.398660000000     0.0340685  
H137     H      0.426000000000     0.608350000000     0.274140000000     0.0328702  
H138     H      0.335700000000     0.703410000000     0.188930000000     0.0303835  
H139     H      0.399370000000     0.766010000000     0.192290000000     0.0340502  
H140     H      0.490740000000     0.668740000000     0.274210000000     0.0327435  
H141     H      0.192330000000     0.700650000000     0.334030000000     0.0340362  
H142     H      0.274490000000     0.609410000000     0.431190000000     0.0327238  
H143     H      0.274410000000     0.674210000000     0.491700000000     0.0328513  
H144     H      0.188960000000     0.764360000000     0.396730000000     0.0303751  
N1       N      0.656460000000     0.723130000000     0.869230000000    -0.197355   
N2       N      0.729810000000     0.652770000000     0.871570000000    -0.199759   
N3       N      0.871830000000     0.724990000000     0.657470000000    -0.199732   
N4       N      0.869510000000     0.651680000000     0.727710000000    -0.197298   
N5       N      0.727880000000     0.864660000000     0.656220000000    -0.197346   
N6       N      0.657590000000     0.866950000000     0.729600000000    -0.199691   
N7       N      0.001710000000     0.849670000000     0.550690000000    -0.198614   
N8       N      0.103620000000     0.849800000000     0.554350000000    -0.198715   
N9       N      0.375540000000     0.867050000000     0.657430000000    -0.19974    
N10      N      0.448870000000     0.864700000000     0.727760000000    -0.197363   
N11      N      0.103720000000     0.546150000000     0.854300000000    -0.198669   
N12      N      0.001800000000     0.549750000000     0.854310000000    -0.198674   
N13      N      0.377470000000     0.651740000000     0.869260000000    -0.197375   
N14      N      0.447750000000     0.725090000000     0.871570000000    -0.199741   
N15      N      0.233570000000     0.652980000000     0.729620000000    -0.199721   
N16      N      0.235880000000     0.723230000000     0.656320000000    -0.197338   
N17      N      0.250710000000     0.098700000000     0.553990000000    -0.198669   
N18      N      0.250610000000     0.996770000000     0.550510000000    -0.198571   
N19      N      0.233560000000     0.370820000000     0.656970000000    -0.199733   
N20      N      0.235910000000     0.444210000000     0.727360000000    -0.197372   
N21      N      0.854710000000     0.996670000000     0.554140000000    -0.198575   
N22      N      0.854810000000     0.098570000000     0.550310000000    -0.198653   
N23      N      0.001840000000     0.245590000000     0.553780000000    -0.19866    
N24      N      0.103750000000     0.245660000000     0.550130000000    -0.198699   
N25      N      0.869700000000     0.372510000000     0.655740000000    -0.197474   
N26      N      0.872060000000     0.442900000000     0.729130000000    -0.199698   
N27      N      0.554610000000     0.098810000000     0.854130000000    -0.198753   
N28      N      0.550900000000     0.996910000000     0.854440000000    -0.198487   
N29      N      0.449060000000     0.372700000000     0.868980000000    -0.197331   
N30      N      0.375660000000     0.443020000000     0.871300000000    -0.199728   
N31      N      0.377480000000     0.231030000000     0.655840000000    -0.197359   
N32      N      0.447810000000     0.228680000000     0.729180000000    -0.199683   
N33      N      0.657860000000     0.370660000000     0.871220000000    -0.199709   
N34      N      0.728160000000     0.443980000000     0.868880000000    -0.197387   
N35      N      0.656590000000     0.230890000000     0.727240000000    -0.197419   
N36      N      0.729980000000     0.228610000000     0.656950000000    -0.199771   
N37      N      0.554640000000     0.245470000000     0.103000000000    -0.198708   
N38      N      0.551010000000     0.245780000000     0.001080000000    -0.198656   
N39      N      0.449000000000     0.230760000000     0.376690000000    -0.197408   
N40      N      0.375680000000     0.228400000000     0.447030000000    -0.199726   
N41      N      0.657720000000     0.228310000000     0.374890000000    -0.199689   
N42      N      0.728040000000     0.230630000000     0.448240000000    -0.197417   
N43      N      0.554510000000     0.996550000000     0.250340000000    -0.198454   
N44      N      0.550920000000     0.098460000000     0.250020000000    -0.1987     
N45      N      0.550800000000     0.849580000000     0.103390000000    -0.198665   
N46      N      0.554470000000     0.849880000000     0.001480000000    -0.198684   
N47      N      0.656450000000     0.864370000000     0.377190000000    -0.197374   
N48      N      0.729830000000     0.866670000000     0.447480000000    -0.199702   
N49      N      0.447630000000     0.866790000000     0.375310000000    -0.19975    
N50      N      0.377300000000     0.864410000000     0.448650000000    -0.197324   
N51      N      0.854780000000     0.549340000000     0.103180000000    -0.1986     
N52      N      0.854810000000     0.545850000000     0.001250000000    -0.198635   
N53      N      0.869580000000     0.443560000000     0.376760000000    -0.197337   
N54      N      0.871910000000     0.370250000000     0.447000000000    -0.199664   
N55      N      0.729910000000     0.442420000000     0.232890000000    -0.199714   
N56      N      0.656600000000     0.372100000000     0.235260000000    -0.197334   
N57      N      0.727980000000     0.651200000000     0.235530000000    -0.197423   
N58      N      0.657640000000     0.724560000000     0.233190000000    -0.199687   
N59      N      0.871890000000     0.652320000000     0.375290000000    -0.199686   
N60      N      0.869580000000     0.722690000000     0.448710000000    -0.197429   
N61      N      0.103660000000     0.549270000000     0.250210000000    -0.198641   
N62      N      0.001760000000     0.545560000000     0.250170000000    -0.198641   
N63      N      0.250710000000     0.549680000000     0.001310000000    -0.198722   
N64      N      0.250700000000     0.545860000000     0.103210000000    -0.198673   
N65      N      0.377550000000     0.443790000000     0.235230000000    -0.1974     
N66      N      0.447880000000     0.370420000000     0.232900000000    -0.199726   
N67      N      0.233620000000     0.442520000000     0.374880000000    -0.199706   
N68      N      0.235950000000     0.372290000000     0.448200000000    -0.197291   
N69      N      0.375460000000     0.652520000000     0.233270000000    -0.199716   
N70      N      0.448830000000     0.722790000000     0.235560000000    -0.197388   
N71      N      0.235740000000     0.651260000000     0.377200000000    -0.197438   
N72      N      0.233420000000     0.724670000000     0.447580000000    -0.199691   
O1       O      0.334370000000     0.603340000000     0.285060000000    -0.518942   
O2       O      0.215940000000     0.475270000000     0.299210000000    -0.496837   
O3       O      0.299750000000     0.619760000000     0.215560000000    -0.496927   
O4       O      0.244470000000     0.635410000000     0.295820000000    -0.502895   
O5       O      0.347660000000     0.517160000000     0.263230000000    -0.501984   
O6       O      0.176280000000     0.514830000000     0.228280000000    -0.507816   
O7       O      0.260560000000     0.547530000000     0.260110000000    -0.87068    
O8       O      0.259650000000     0.506810000000     0.176880000000    -0.501028   
O9       O      0.228760000000     0.580230000000     0.175870000000    -0.508086   
O10      O      0.263700000000     0.577910000000     0.347250000000    -0.501853   
O11      O      0.177390000000     0.588260000000     0.259250000000    -0.501077   
O12      O      0.296180000000     0.459650000000     0.243890000000    -0.50282    
O13      O      0.285450000000     0.491740000000     0.333860000000    -0.519086   
O14      O      0.820030000000     0.603150000000     0.334070000000    -0.519147   
O15      O      0.805600000000     0.475190000000     0.215250000000    -0.497031   
O16      O      0.889570000000     0.619520000000     0.299520000000    -0.497122   
O17      O      0.809330000000     0.635310000000     0.244300000000    -0.502829   
O18      O      0.841700000000     0.516950000000     0.347090000000    -0.501937   
O19      O      0.876580000000     0.514730000000     0.175670000000    -0.507718   
O20      O      0.844860000000     0.547380000000     0.260090000000    -0.87083    
O21      O      0.928010000000     0.506590000000     0.259000000000    -0.501133   
O22      O      0.929170000000     0.580040000000     0.228380000000    -0.508108   
O23      O      0.757790000000     0.577830000000     0.263320000000    -0.501985   
O24      O      0.845800000000     0.588210000000     0.177070000000    -0.501201   
O25      O      0.860920000000     0.459460000000     0.295430000000    -0.502624   
O26      O      0.771000000000     0.491630000000     0.284820000000    -0.519163   
O27      O      0.608420000000     0.765760000000     0.285070000000    -0.519243   
O28      O      0.480420000000     0.884400000000     0.299620000000    -0.496932   
O29      O      0.624840000000     0.800270000000     0.215570000000    -0.497008   
O30      O      0.640550000000     0.855630000000     0.295840000000    -0.502743   
O31      O      0.522230000000     0.752590000000     0.263410000000    -0.501928   
O32      O      0.519950000000     0.923950000000     0.228640000000    -0.507893   
O33      O      0.552640000000     0.839630000000     0.260300000000    -0.870768   
O34      O      0.511860000000     0.840580000000     0.177160000000    -0.50107    
O35      O      0.585320000000     0.871290000000     0.176010000000    -0.508023   
O36      O      0.583050000000     0.836530000000     0.347370000000    -0.50178    
O37      O      0.593420000000     0.922740000000     0.259390000000    -0.501096   
O38      O      0.464730000000     0.804140000000     0.244250000000    -0.502631   
O39      O      0.496870000000     0.814900000000     0.334160000000    -0.519264   
O40      O      0.497030000000     0.329300000000     0.284760000000    -0.519061   
O41      O      0.624960000000     0.210610000000     0.299150000000    -0.497157   
O42      O      0.480650000000     0.294670000000     0.215180000000    -0.497161   
O43      O      0.464870000000     0.239480000000     0.295360000000    -0.502751   
O44      O      0.583230000000     0.342390000000     0.263150000000    -0.501948   
O45      O      0.585430000000     0.170950000000     0.228090000000    -0.507795   
O46      O      0.552800000000     0.255350000000     0.259890000000    -0.870893   
O47      O      0.593610000000     0.254270000000     0.176790000000    -0.501252   
O48      O      0.520150000000     0.223560000000     0.175510000000    -0.507782   
O49      O      0.522360000000     0.258630000000     0.346940000000    -0.501882   
O50      O      0.511980000000     0.172290000000     0.258850000000    -0.501261   
O51      O      0.640730000000     0.290770000000     0.243950000000    -0.502631   
O52      O      0.608560000000     0.280200000000     0.333800000000    -0.519045   
O53      O      0.608610000000     0.329520000000     0.819370000000    -0.51921    
O54      O      0.480600000000     0.211050000000     0.804880000000    -0.49695    
O55      O      0.625070000000     0.294980000000     0.888860000000    -0.496936   
O56      O      0.640710000000     0.239580000000     0.808600000000    -0.502731   
O57      O      0.522440000000     0.342820000000     0.841080000000    -0.501864   
O58      O      0.520130000000     0.171460000000     0.875860000000    -0.508175   
O59      O      0.552830000000     0.255720000000     0.844170000000    -0.870672   
O60      O      0.512070000000     0.254850000000     0.927320000000    -0.501212   
O61      O      0.585530000000     0.224040000000     0.928460000000    -0.508061   
O62      O      0.583210000000     0.258790000000     0.757090000000    -0.50189    
O63      O      0.593570000000     0.172540000000     0.845080000000    -0.501138   
O64      O      0.464930000000     0.291330000000     0.860240000000    -0.502748   
O65      O      0.497030000000     0.280540000000     0.770340000000    -0.519125   
O66      O      0.771090000000     0.280410000000     0.607790000000    -0.519079   
O67      O      0.889600000000     0.294570000000     0.479740000000    -0.496933   
O68      O      0.805710000000     0.210900000000     0.624180000000    -0.497223   
O69      O      0.860940000000     0.291150000000     0.639890000000    -0.502888   
O70      O      0.757870000000     0.258610000000     0.521610000000    -0.501951   
O71      O      0.929280000000     0.223640000000     0.519310000000    -0.507749   
O72      O      0.844940000000     0.255470000000     0.551990000000    -0.870908   
O73      O      0.845930000000     0.172240000000     0.511250000000    -0.501004   
O74      O      0.876770000000     0.171210000000     0.584680000000    -0.508117   
O75      O      0.841760000000     0.342590000000     0.582390000000    -0.502081   
O76      O      0.928070000000     0.254590000000     0.592740000000    -0.501156   
O77      O      0.809390000000     0.239270000000     0.464100000000    -0.502776   
O78      O      0.820070000000     0.329240000000     0.496210000000    -0.519154   
O79      O      0.285440000000     0.329590000000     0.607790000000    -0.519116   
O80      O      0.299990000000     0.210760000000     0.479820000000    -0.496995   
O81      O      0.215900000000     0.295070000000     0.624160000000    -0.497119   
O82      O      0.296140000000     0.239800000000     0.639950000000    -0.502566   
O83      O      0.263800000000     0.342610000000     0.521590000000    -0.501831   
O84      O      0.228990000000     0.171200000000     0.519360000000    -0.507695   
O85      O      0.260650000000     0.255610000000     0.552010000000    -0.870893   
O86      O      0.177530000000     0.254530000000     0.511200000000    -0.501065   
O87      O      0.176330000000     0.223950000000     0.584680000000    -0.508085   
O88      O      0.347700000000     0.258820000000     0.582450000000    -0.501798   
O89      O      0.259690000000     0.172590000000     0.592850000000    -0.501216   
O90      O      0.244640000000     0.290950000000     0.464090000000    -0.50266    
O91      O      0.334540000000     0.280320000000     0.496260000000    -0.519279   
O92      O      0.334510000000     0.492180000000     0.819490000000    -0.51912    
O93      O      0.215910000000     0.620230000000     0.805290000000    -0.497041   
O94      O      0.299920000000     0.475790000000     0.888990000000    -0.497207   
O95      O      0.244680000000     0.460070000000     0.808730000000    -0.50276    
O96      O      0.347670000000     0.578370000000     0.841290000000    -0.50197    
O97      O      0.176270000000     0.580660000000     0.876200000000    -0.507827   
O98      O      0.260620000000     0.547980000000     0.844410000000    -0.870749   
O99      O      0.259610000000     0.588710000000     0.927640000000    -0.50121    
O100     O      0.228840000000     0.515290000000     0.928660000000    -0.508236   
O101     O      0.263800000000     0.517580000000     0.757290000000    -0.50188    
O102     O      0.177520000000     0.507210000000     0.845270000000    -0.501189   
O103     O      0.296110000000     0.635870000000     0.860630000000    -0.502676   
O104     O      0.285430000000     0.603760000000     0.770650000000    -0.519273   
O105     O      0.285320000000     0.765870000000     0.496720000000    -0.519011   
O106     O      0.299830000000     0.884710000000     0.624660000000    -0.497105   
O107     O      0.215750000000     0.800440000000     0.480370000000    -0.497037   
O108     O      0.295970000000     0.855640000000     0.464540000000    -0.502763   
O109     O      0.263730000000     0.752880000000     0.582930000000    -0.501811   
O110     O      0.228800000000     0.924310000000     0.585130000000    -0.507715   
O111     O      0.260510000000     0.839880000000     0.552490000000    -0.870744   
O112     O      0.177410000000     0.841000000000     0.593310000000    -0.501244   
O113     O      0.176160000000     0.871600000000     0.519850000000    -0.507995   
O114     O      0.347560000000     0.836610000000     0.522030000000    -0.501885   
O115     O      0.259520000000     0.922880000000     0.511650000000    -0.501169   
O116     O      0.244540000000     0.804560000000     0.640420000000    -0.502548   
O117     O      0.334420000000     0.815130000000     0.608230000000    -0.519264   
O118     O      0.770960000000     0.814860000000     0.496660000000    -0.519013   
O119     O      0.889480000000     0.800660000000     0.624730000000    -0.496873   
O120     O      0.805560000000     0.884340000000     0.480240000000    -0.497003   
O121     O      0.860840000000     0.804060000000     0.464570000000    -0.502879   
O122     O      0.757730000000     0.836680000000     0.582840000000    -0.502012   
O123     O      0.929110000000     0.871560000000     0.585160000000    -0.507878   
O124     O      0.844810000000     0.839770000000     0.552470000000    -0.870727   
O125     O      0.845740000000     0.923020000000     0.593180000000    -0.500968   
O126     O      0.876590000000     0.924000000000     0.519760000000    -0.508207   
O127     O      0.841670000000     0.752640000000     0.522070000000    -0.501951   
O128     O      0.927950000000     0.840600000000     0.511720000000    -0.501027   
O129     O      0.809240000000     0.856010000000     0.640350000000    -0.502741   
O130     O      0.819980000000     0.766030000000     0.608250000000    -0.519215   
O131     O      0.496900000000     0.766150000000     0.819720000000    -0.519125   
O132     O      0.624840000000     0.884670000000     0.805350000000    -0.497122   
O133     O      0.480490000000     0.800820000000     0.889280000000    -0.497182   
O134     O      0.464750000000     0.856020000000     0.809100000000    -0.502788   
O135     O      0.583090000000     0.752940000000     0.841330000000    -0.501917   
O136     O      0.585320000000     0.924360000000     0.876430000000    -0.507812   
O137     O      0.552670000000     0.840010000000     0.844590000000    -0.870778   
O138     O      0.593450000000     0.841010000000     0.927690000000    -0.501226   
O139     O      0.520020000000     0.871860000000     0.928960000000    -0.507728   
O140     O      0.522240000000     0.836780000000     0.757530000000    -0.502055   
O141     O      0.511890000000     0.923150000000     0.845620000000    -0.501171   
O142     O      0.640590000000     0.804480000000     0.860540000000    -0.502687   
O143     O      0.608440000000     0.815110000000     0.770680000000    -0.519086   
O144     O      0.770970000000     0.603580000000     0.819640000000    -0.519207   
O145     O      0.889710000000     0.475700000000     0.804900000000    -0.497127   
O146     O      0.805530000000     0.619990000000     0.889210000000    -0.49711    
O147     O      0.860820000000     0.635770000000     0.809040000000    -0.502547   
O148     O      0.757880000000     0.517370000000     0.841110000000    -0.501865   
O149     O      0.929270000000     0.515190000000     0.876030000000    -0.507994   
O150     O      0.844900000000     0.547830000000     0.844350000000    -0.870737   
O151     O      0.845920000000     0.506980000000     0.927360000000    -0.501239   
O152     O      0.876570000000     0.580470000000     0.928780000000    -0.507789   
O153     O      0.841700000000     0.578280000000     0.757360000000    -0.501804   
O154     O      0.927980000000     0.588660000000     0.845450000000    -0.501252   
O155     O      0.809490000000     0.459880000000     0.860130000000    -0.502662   
O156     O      0.820150000000     0.492070000000     0.770350000000    -0.519207   


