data_structure

_audit_creation_method RASPA-1.0
_audit_creation_date 2023-6-4
_audit_author_name 'Poobodin Mano'

_cell_length_a    28.8698
_cell_length_b    29.0115
_cell_length_c    30.8705
_cell_angle_alpha 90
_cell_angle_beta  90
_cell_angle_gamma 120.584
_cell_volume      22258.8

_symmetry_cell_setting          triclinic
_symmetry_space_group_name_Hall 'P 1'
_symmetry_space_group_name_H-M  'P 1'
_symmetry_Int_Tables_number     1

_symmetry_equiv_pos_as_xyz 'x,y,z'

loop_
_atom_site_label
_atom_site_type_symbol
_atom_site_fract_x
_atom_site_fract_y
_atom_site_fract_z
_atom_site_charge
C1       C      0.389000000000     0.412010000000     0.294090000000     0.531627   
C2       C      0.381780000000     0.405330000000     0.410490000000     0.530918   
C3       C      0.245380000000     0.412210000000     0.410540000000     0.532664   
C4       C      0.381640000000     0.547910000000     0.293300000000     0.531701   
C5       C      0.389780000000     0.549260000000     0.409630000000     0.532595   
C6       C      0.244560000000     0.403990000000     0.294260000000     0.533007   
C7       C      0.454040000000     0.331630000000     0.044090000000     0.531791   
C8       C      0.461260000000     0.338310000000     0.160490000000     0.53119    
C9       C      0.597660000000     0.331440000000     0.160540000000     0.532568   
C10      C      0.461390000000     0.195730000000     0.043300000000     0.531528   
C11      C      0.453260000000     0.194380000000     0.159630000000     0.532909   
C12      C      0.598470000000     0.339660000000     0.044260000000     0.533413   
C13      C      0.652870000000     0.407250000000     0.493500000000     0.0358699  
C14      C      0.153660000000     0.326250000000     0.995060000000     0.03689    
C15      C      0.189370000000     0.343850000000     0.960150000000     0.0368166  
C16      C      0.191590000000     0.426360000000     0.460770000000     0.0359069  
C17      C      0.190160000000     0.336400000000     0.243500000000     0.0358858  
C18      C      0.189380000000     0.417390000000     0.245060000000     0.0370683  
C19      C      0.653660000000     0.399790000000     0.210150000000     0.0367951  
C20      C      0.651440000000     0.317280000000     0.210770000000     0.0358701  
C21      C      0.450050000000     0.604090000000     0.243570000000     0.0365443  
C22      C      0.366880000000     0.601330000000     0.243320000000     0.0357871  
C23      C      0.385730000000     0.139900000000     0.210600000000     0.0357577  
C24      C      0.467390000000     0.139700000000     0.208670000000     0.0370182  
C25      C      0.392980000000     0.139550000000     0.493570000000     0.0365971  
C26      C      0.476150000000     0.642310000000     0.993310000000     0.0356308  
C27      C      0.457300000000     0.603740000000     0.960600000000     0.0357687  
C28      C      0.375640000000     0.103940000000     0.458670000000     0.036982   
C29      C      0.468040000000     0.400540000000     0.494870000000     0.0367072  
C30      C      0.386210000000     0.317810000000     0.993420000000     0.035437   
C31      C      0.367210000000     0.337200000000     0.960720000000     0.035647   
C32      C      0.450510000000     0.418490000000     0.459990000000     0.0364416  
C33      C      0.374990000000     0.343110000000     0.244870000000     0.0366928  
C34      C      0.456820000000     0.425830000000     0.243420000000     0.0355795  
C35      C      0.475820000000     0.406440000000     0.210720000000     0.0355932  
C36      C      0.392530000000     0.325160000000     0.209990000000     0.0365166  
C37      C      0.389000000000     0.412010000000     0.794090000000     0.531588   
C38      C      0.381780000000     0.405330000000     0.910490000000     0.530949   
C39      C      0.245380000000     0.412210000000     0.910540000000     0.532608   
C40      C      0.381640000000     0.547910000000     0.793300000000     0.531683   
C41      C      0.389780000000     0.549260000000     0.909630000000     0.532742   
C42      C      0.244560000000     0.403990000000     0.794260000000     0.533007   
C43      C      0.454040000000     0.331630000000     0.544090000000     0.531668   
C44      C      0.461260000000     0.338310000000     0.660490000000     0.531315   
C45      C      0.597660000000     0.331440000000     0.660550000000     0.532483   
C46      C      0.461390000000     0.195730000000     0.543300000000     0.531531   
C47      C      0.453260000000     0.194380000000     0.659630000000     0.532902   
C48      C      0.598470000000     0.339660000000     0.544260000000     0.533423   
C49      C      0.652870000000     0.407250000000     0.993500000000     0.0357366  
C50      C      0.153660000000     0.326250000000     0.495060000000     0.036997   
C51      C      0.189370000000     0.343850000000     0.460150000000     0.0368002  
C52      C      0.191590000000     0.426360000000     0.960770000000     0.0359722  
C53      C      0.190160000000     0.336400000000     0.743500000000     0.0358844  
C54      C      0.189380000000     0.417390000000     0.745060000000     0.0370652  
C55      C      0.653660000000     0.399790000000     0.710150000000     0.0368024  
C56      C      0.651440000000     0.317280000000     0.710770000000     0.0358788  
C57      C      0.450050000000     0.604090000000     0.743570000000     0.03654    
C58      C      0.366880000000     0.601330000000     0.743310000000     0.0357693  
C59      C      0.385730000000     0.139900000000     0.710600000000     0.0357567  
C60      C      0.467390000000     0.139700000000     0.708680000000     0.0370003  
C61      C      0.392980000000     0.139550000000     0.993570000000     0.0364718  
C62      C      0.476150000000     0.642310000000     0.493320000000     0.0357679  
C63      C      0.457300000000     0.603740000000     0.460600000000     0.0357522  
C64      C      0.375640000000     0.103940000000     0.958670000000     0.0370258  
C65      C      0.468040000000     0.400540000000     0.994870000000     0.0365976  
C66      C      0.386210000000     0.317810000000     0.493420000000     0.0355478  
C67      C      0.367210000000     0.337200000000     0.460720000000     0.0356111  
C68      C      0.450510000000     0.418490000000     0.959990000000     0.0364867  
C69      C      0.374990000000     0.343110000000     0.744870000000     0.0366875  
C70      C      0.456820000000     0.425830000000     0.743420000000     0.0355734  
C71      C      0.475820000000     0.406440000000     0.710720000000     0.0355977  
C72      C      0.392530000000     0.325160000000     0.709990000000     0.0365259  
C73      C      0.389000000000     0.912010000000     0.294090000000     0.531607   
C74      C      0.381780000000     0.905330000000     0.410490000000     0.530872   
C75      C      0.245380000000     0.912210000000     0.410540000000     0.532822   
C76      C      0.381640000000     0.047910000000     0.293300000000     0.531675   
C77      C      0.389780000000     0.049260000000     0.409630000000     0.532574   
C78      C      0.244560000000     0.903990000000     0.294260000000     0.53299    
C79      C      0.454040000000     0.831630000000     0.044090000000     0.531789   
C80      C      0.461260000000     0.838320000000     0.160490000000     0.531082   
C81      C      0.597660000000     0.831440000000     0.160540000000     0.532744   
C82      C      0.461390000000     0.695730000000     0.043300000000     0.53147    
C83      C      0.453250000000     0.694380000000     0.159630000000     0.532933   
C84      C      0.598470000000     0.839660000000     0.044260000000     0.533227   
C85      C      0.652870000000     0.907250000000     0.493500000000     0.0358091  
C86      C      0.153660000000     0.826250000000     0.995060000000     0.0369477  
C87      C      0.189370000000     0.843850000000     0.960150000000     0.0367775  
C88      C      0.191590000000     0.926370000000     0.460770000000     0.0358544  
C89      C      0.190160000000     0.836400000000     0.243500000000     0.0358512  
C90      C      0.189380000000     0.917390000000     0.245060000000     0.0370887  
C91      C      0.653660000000     0.899790000000     0.210150000000     0.0367353  
C92      C      0.651440000000     0.817280000000     0.210770000000     0.0359347  
C93      C      0.450050000000     0.104090000000     0.243570000000     0.036558   
C94      C      0.366880000000     0.101330000000     0.243320000000     0.0357809  
C95      C      0.385730000000     0.639910000000     0.210600000000     0.0357137  
C96      C      0.467390000000     0.639700000000     0.208670000000     0.0370217  
C97      C      0.392980000000     0.639550000000     0.493570000000     0.0365659  
C98      C      0.476150000000     0.142310000000     0.993320000000     0.035627   
C99      C      0.457300000000     0.103740000000     0.960600000000     0.0358262  
C100     C      0.375640000000     0.603940000000     0.458670000000     0.0369653  
C101     C      0.468040000000     0.900540000000     0.494870000000     0.0366994  
C102     C      0.386210000000     0.817820000000     0.993420000000     0.0354341  
C103     C      0.367210000000     0.837210000000     0.960720000000     0.0356727  
C104     C      0.450510000000     0.918490000000     0.459990000000     0.0364298  
C105     C      0.374990000000     0.843110000000     0.244870000000     0.0366828  
C106     C      0.456820000000     0.925830000000     0.243420000000     0.0355667  
C107     C      0.475820000000     0.906440000000     0.210720000000     0.0355908  
C108     C      0.392530000000     0.825160000000     0.209990000000     0.0365237  
C109     C      0.389000000000     0.912010000000     0.794090000000     0.531568   
C110     C      0.381780000000     0.905330000000     0.910490000000     0.530904   
C111     C      0.245380000000     0.912210000000     0.910540000000     0.532598   
C112     C      0.381640000000     0.047910000000     0.793300000000     0.531656   
C113     C      0.389780000000     0.049260000000     0.909630000000     0.532662   
C114     C      0.244560000000     0.903990000000     0.794260000000     0.532988   
C115     C      0.454040000000     0.831630000000     0.544090000000     0.531669   
C116     C      0.461260000000     0.838320000000     0.660490000000     0.531208   
C117     C      0.597660000000     0.831440000000     0.660550000000     0.532658   
C118     C      0.461390000000     0.695730000000     0.543300000000     0.531474   
C119     C      0.453250000000     0.694380000000     0.659630000000     0.532927   
C120     C      0.598470000000     0.839660000000     0.544260000000     0.533235   
C121     C      0.652870000000     0.907250000000     0.993500000000     0.0356964  
C122     C      0.153660000000     0.826250000000     0.495060000000     0.0370641  
C123     C      0.189370000000     0.843850000000     0.460150000000     0.0367703  
C124     C      0.191590000000     0.926370000000     0.960770000000     0.0359052  
C125     C      0.190160000000     0.836400000000     0.743500000000     0.0358497  
C126     C      0.189380000000     0.917390000000     0.745060000000     0.0370855  
C127     C      0.653660000000     0.899790000000     0.710150000000     0.0367426  
C128     C      0.651440000000     0.817280000000     0.710770000000     0.0359433  
C129     C      0.450050000000     0.104090000000     0.743570000000     0.0365556  
C130     C      0.366880000000     0.101330000000     0.743310000000     0.0357644  
C131     C      0.385730000000     0.639910000000     0.710600000000     0.0357143  
C132     C      0.467390000000     0.639700000000     0.708670000000     0.0370216  
C133     C      0.392980000000     0.639550000000     0.993570000000     0.0364274  
C134     C      0.476150000000     0.142310000000     0.493320000000     0.0357437  
C135     C      0.457300000000     0.103740000000     0.460600000000     0.0357855  
C136     C      0.375640000000     0.603940000000     0.958670000000     0.0370536  
C137     C      0.468050000000     0.900540000000     0.994870000000     0.0365654  
C138     C      0.386210000000     0.817820000000     0.493420000000     0.035568   
C139     C      0.367210000000     0.837200000000     0.460720000000     0.035582   
C140     C      0.450510000000     0.918490000000     0.959990000000     0.0364871  
C141     C      0.374990000000     0.843110000000     0.744870000000     0.0366775  
C142     C      0.456820000000     0.925830000000     0.743420000000     0.0355607  
C143     C      0.475820000000     0.906440000000     0.710720000000     0.0355953  
C144     C      0.392530000000     0.825160000000     0.709990000000     0.036533   
C145     C      0.889000000000     0.412010000000     0.294090000000     0.531611   
C146     C      0.881770000000     0.405330000000     0.410490000000     0.530985   
C147     C      0.745380000000     0.412210000000     0.410540000000     0.53266    
C148     C      0.881640000000     0.547910000000     0.293300000000     0.531706   
C149     C      0.889780000000     0.549260000000     0.409630000000     0.53259    
C150     C      0.744560000000     0.403990000000     0.294260000000     0.533004   
C151     C      0.954040000000     0.331630000000     0.044090000000     0.531765   
C152     C      0.961260000000     0.338310000000     0.160490000000     0.531044   
C153     C      0.097660000000     0.331440000000     0.160540000000     0.532579   
C154     C      0.961390000000     0.195730000000     0.043300000000     0.531259   
C155     C      0.953250000000     0.194380000000     0.159630000000     0.532886   
C156     C      0.098470000000     0.339660000000     0.044260000000     0.533423   
C157     C      0.152870000000     0.407250000000     0.493500000000     0.0358775  
C158     C      0.653660000000     0.326250000000     0.995060000000     0.0368849  
C159     C      0.689380000000     0.343850000000     0.960150000000     0.0368131  
C160     C      0.691590000000     0.426360000000     0.460770000000     0.0358909  
C161     C      0.690160000000     0.336400000000     0.243500000000     0.0358723  
C162     C      0.689380000000     0.417390000000     0.245060000000     0.0370612  
C163     C      0.153660000000     0.399790000000     0.210150000000     0.0367924  
C164     C      0.151440000000     0.317280000000     0.210770000000     0.03588    
C165     C      0.950050000000     0.604090000000     0.243570000000     0.0366211  
C166     C      0.866880000000     0.601330000000     0.243320000000     0.0357934  
C167     C      0.885730000000     0.139900000000     0.210600000000     0.0357241  
C168     C      0.967390000000     0.139700000000     0.208670000000     0.0367539  
C169     C      0.892980000000     0.139550000000     0.493570000000     0.0365433  
C170     C      0.976150000000     0.642310000000     0.993310000000     0.035349   
C171     C      0.957310000000     0.603740000000     0.960600000000     0.0358354  
C172     C      0.875640000000     0.103940000000     0.458670000000     0.0370495  
C173     C      0.968040000000     0.400540000000     0.494870000000     0.0364317  
C174     C      0.886220000000     0.317810000000     0.993420000000     0.0354496  
C175     C      0.867210000000     0.337210000000     0.960720000000     0.0356712  
C176     C      0.950510000000     0.418490000000     0.459990000000     0.0365158  
C177     C      0.874990000000     0.343110000000     0.244870000000     0.0367031  
C178     C      0.956820000000     0.425830000000     0.243420000000     0.0356578  
C179     C      0.975820000000     0.406440000000     0.210720000000     0.0352981  
C180     C      0.892530000000     0.325160000000     0.209990000000     0.0364878  
C181     C      0.889000000000     0.412010000000     0.794090000000     0.531573   
C182     C      0.881770000000     0.405330000000     0.910490000000     0.531019   
C183     C      0.745380000000     0.412210000000     0.910540000000     0.532662   
C184     C      0.881640000000     0.547910000000     0.793300000000     0.531689   
C185     C      0.889780000000     0.549260000000     0.909630000000     0.532739   
C186     C      0.744560000000     0.403990000000     0.794260000000     0.533005   
C187     C      0.954040000000     0.331630000000     0.544090000000     0.531647   
C188     C      0.961260000000     0.338310000000     0.660490000000     0.53105    
C189     C      0.097660000000     0.331440000000     0.660550000000     0.532492   
C190     C      0.961390000000     0.195730000000     0.543300000000     0.531265   
C191     C      0.953250000000     0.194380000000     0.659630000000     0.532884   
C192     C      0.098470000000     0.339660000000     0.544260000000     0.533433   
C193     C      0.152870000000     0.407250000000     0.993500000000     0.0357519  
C194     C      0.653660000000     0.326250000000     0.495060000000     0.0370009  
C195     C      0.689380000000     0.343850000000     0.460150000000     0.0367754  
C196     C      0.691590000000     0.426360000000     0.960770000000     0.0359355  
C197     C      0.690160000000     0.336400000000     0.743500000000     0.035869   
C198     C      0.689380000000     0.417390000000     0.745060000000     0.0370575  
C199     C      0.153660000000     0.399790000000     0.710150000000     0.0367996  
C200     C      0.151440000000     0.317280000000     0.710770000000     0.0358883  
C201     C      0.950050000000     0.604090000000     0.743570000000     0.0366168  
C202     C      0.866880000000     0.601330000000     0.743310000000     0.0357755  
C203     C      0.885730000000     0.139900000000     0.710600000000     0.0357255  
C204     C      0.967390000000     0.139700000000     0.708670000000     0.0367582  
C205     C      0.892980000000     0.139550000000     0.993570000000     0.0364175  
C206     C      0.976150000000     0.642310000000     0.493320000000     0.0355103  
C207     C      0.957310000000     0.603740000000     0.460600000000     0.0357588  
C208     C      0.875640000000     0.103940000000     0.958670000000     0.0370935  
C209     C      0.968040000000     0.400540000000     0.994870000000     0.0363212  
C210     C      0.886210000000     0.317810000000     0.493420000000     0.0355317  
C211     C      0.867210000000     0.337200000000     0.460720000000     0.0356048  
C212     C      0.950510000000     0.418490000000     0.959990000000     0.0365604  
C213     C      0.874990000000     0.343110000000     0.744870000000     0.0367011  
C214     C      0.956820000000     0.425830000000     0.743420000000     0.0356533  
C215     C      0.975820000000     0.406440000000     0.710720000000     0.0352996  
C216     C      0.892530000000     0.325160000000     0.709990000000     0.0364881  
C217     C      0.889000000000     0.912010000000     0.294090000000     0.531547   
C218     C      0.881780000000     0.905330000000     0.410490000000     0.530871   
C219     C      0.745380000000     0.912210000000     0.410540000000     0.53282    
C220     C      0.881640000000     0.047910000000     0.293300000000     0.531674   
C221     C      0.889780000000     0.049260000000     0.409630000000     0.532569   
C222     C      0.744560000000     0.903990000000     0.294260000000     0.532983   
C223     C      0.954030000000     0.831630000000     0.044090000000     0.5317     
C224     C      0.961260000000     0.838320000000     0.160490000000     0.530933   
C225     C      0.097660000000     0.831440000000     0.160540000000     0.532756   
C226     C      0.961390000000     0.695730000000     0.043300000000     0.531202   
C227     C      0.953250000000     0.694380000000     0.159630000000     0.532906   
C228     C      0.098470000000     0.839660000000     0.044260000000     0.533239   
C229     C      0.152870000000     0.907250000000     0.493500000000     0.0358411  
C230     C      0.653660000000     0.826250000000     0.995060000000     0.0369147  
C231     C      0.689370000000     0.843850000000     0.960150000000     0.0368154  
C232     C      0.691590000000     0.926370000000     0.460770000000     0.0358514  
C233     C      0.690160000000     0.836400000000     0.243500000000     0.0358368  
C234     C      0.689380000000     0.917390000000     0.245060000000     0.0370712  
C235     C      0.153660000000     0.899790000000     0.210150000000     0.0367424  
C236     C      0.151440000000     0.817280000000     0.210770000000     0.0359444  
C237     C      0.950050000000     0.104090000000     0.243570000000     0.0366364  
C238     C      0.866880000000     0.101330000000     0.243320000000     0.0357918  
C239     C      0.885730000000     0.639910000000     0.210600000000     0.0356929  
C240     C      0.967390000000     0.639700000000     0.208670000000     0.0367459  
C241     C      0.892980000000     0.639550000000     0.493570000000     0.0365426  
C242     C      0.976150000000     0.142310000000     0.993320000000     0.0353543  
C243     C      0.957300000000     0.103740000000     0.960600000000     0.0358483  
C244     C      0.875640000000     0.603940000000     0.458670000000     0.0369691  
C245     C      0.968050000000     0.900540000000     0.494870000000     0.0364149  
C246     C      0.886210000000     0.817820000000     0.993420000000     0.0354114  
C247     C      0.867210000000     0.837210000000     0.960720000000     0.035679   
C248     C      0.950510000000     0.918490000000     0.459990000000     0.0365185  
C249     C      0.874990000000     0.843110000000     0.244870000000     0.0366587  
C250     C      0.956820000000     0.925830000000     0.243420000000     0.0356696  
C251     C      0.975820000000     0.906440000000     0.210720000000     0.0352828  
C252     C      0.892530000000     0.825160000000     0.209990000000     0.0365146  
C253     C      0.889000000000     0.912010000000     0.794090000000     0.531508   
C254     C      0.881780000000     0.905330000000     0.910490000000     0.530904   
C255     C      0.745380000000     0.912210000000     0.910540000000     0.532819   
C256     C      0.881640000000     0.047910000000     0.793300000000     0.531656   
C257     C      0.889780000000     0.049260000000     0.909630000000     0.532659   
C258     C      0.744560000000     0.903990000000     0.794260000000     0.532984   
C259     C      0.954030000000     0.831630000000     0.544090000000     0.531585   
C260     C      0.961260000000     0.838320000000     0.660490000000     0.53094    
C261     C      0.097660000000     0.831440000000     0.660550000000     0.532669   
C262     C      0.961390000000     0.695730000000     0.543300000000     0.53121    
C263     C      0.953250000000     0.694380000000     0.659630000000     0.532905   
C264     C      0.098470000000     0.839660000000     0.544260000000     0.533249   
C265     C      0.152870000000     0.907250000000     0.993500000000     0.0357219  
C266     C      0.653660000000     0.826250000000     0.495060000000     0.0370072  
C267     C      0.689380000000     0.843860000000     0.460150000000     0.0368312  
C268     C      0.691590000000     0.926370000000     0.960770000000     0.0358846  
C269     C      0.690160000000     0.836400000000     0.743500000000     0.0358334  
C270     C      0.689380000000     0.917390000000     0.745060000000     0.0370675  
C271     C      0.153660000000     0.899790000000     0.710150000000     0.0367496  
C272     C      0.151440000000     0.817280000000     0.710770000000     0.0359529  
C273     C      0.950050000000     0.104090000000     0.743570000000     0.0366229  
C274     C      0.866880000000     0.101330000000     0.743310000000     0.0357735  
C275     C      0.885730000000     0.639910000000     0.710600000000     0.0356936  
C276     C      0.967390000000     0.639700000000     0.708670000000     0.0367461  
C277     C      0.892980000000     0.639550000000     0.993570000000     0.036428   
C278     C      0.976150000000     0.142310000000     0.493320000000     0.0354711  
C279     C      0.957300000000     0.103740000000     0.460600000000     0.0358076  
C280     C      0.875640000000     0.603940000000     0.958670000000     0.0369985  
C281     C      0.968050000000     0.900540000000     0.994870000000     0.0363006  
C282     C      0.886210000000     0.817820000000     0.493420000000     0.0355464  
C283     C      0.867210000000     0.837200000000     0.460720000000     0.0355897  
C284     C      0.950510000000     0.918490000000     0.959990000000     0.0365667  
C285     C      0.874990000000     0.843110000000     0.744870000000     0.0366567  
C286     C      0.956820000000     0.925830000000     0.743420000000     0.0356653  
C287     C      0.975820000000     0.906440000000     0.710720000000     0.0352844  
C288     C      0.892530000000     0.825160000000     0.709990000000     0.0365149  
Fe1      Fe     0.304770000000     0.387970000000     0.352260000000     1.36098    
Fe2      Fe     0.305270000000     0.488250000000     0.351970000000     1.3646     
Fe3      Fe     0.406300000000     0.489120000000     0.351930000000     1.35765    
Fe4      Fe     0.538260000000     0.355680000000     0.102260000000     1.36096    
Fe5      Fe     0.537770000000     0.255400000000     0.101970000000     1.36484    
Fe6      Fe     0.436730000000     0.254530000000     0.101930000000     1.35745    
Fe7      Fe     0.304770000000     0.387970000000     0.852260000000     1.36098    
Fe8      Fe     0.305270000000     0.488250000000     0.851970000000     1.36461    
Fe9      Fe     0.406300000000     0.489120000000     0.851940000000     1.35779    
Fe10     Fe     0.538260000000     0.355680000000     0.602260000000     1.361      
Fe11     Fe     0.537770000000     0.255400000000     0.601970000000     1.36484    
Fe12     Fe     0.436730000000     0.254530000000     0.601930000000     1.3574     
Fe13     Fe     0.304770000000     0.887970000000     0.352260000000     1.3608     
Fe14     Fe     0.305270000000     0.988250000000     0.351970000000     1.36455    
Fe15     Fe     0.406300000000     0.989120000000     0.351930000000     1.35741    
Fe16     Fe     0.538260000000     0.855680000000     0.102260000000     1.36093    
Fe17     Fe     0.537770000000     0.755390000000     0.101970000000     1.36468    
Fe18     Fe     0.436730000000     0.754530000000     0.101930000000     1.35751    
Fe19     Fe     0.304770000000     0.887970000000     0.852260000000     1.36081    
Fe20     Fe     0.305270000000     0.988250000000     0.851970000000     1.36454    
Fe21     Fe     0.406300000000     0.989120000000     0.851940000000     1.35755    
Fe22     Fe     0.538260000000     0.855680000000     0.602260000000     1.36096    
Fe23     Fe     0.537770000000     0.755390000000     0.601970000000     1.36469    
Fe24     Fe     0.436730000000     0.754530000000     0.601930000000     1.35746    
Fe25     Fe     0.804770000000     0.387970000000     0.352260000000     1.361      
Fe26     Fe     0.805270000000     0.488250000000     0.351970000000     1.36459    
Fe27     Fe     0.906300000000     0.489120000000     0.351930000000     1.35764    
Fe28     Fe     0.038260000000     0.355680000000     0.102260000000     1.36107    
Fe29     Fe     0.037770000000     0.255400000000     0.101970000000     1.36493    
Fe30     Fe     0.936730000000     0.254530000000     0.101930000000     1.35723    
Fe31     Fe     0.804770000000     0.387970000000     0.852260000000     1.361      
Fe32     Fe     0.805270000000     0.488250000000     0.851970000000     1.36461    
Fe33     Fe     0.906300000000     0.489120000000     0.851940000000     1.35779    
Fe34     Fe     0.038260000000     0.355680000000     0.602260000000     1.3611     
Fe35     Fe     0.037770000000     0.255400000000     0.601970000000     1.36493    
Fe36     Fe     0.936730000000     0.254530000000     0.601930000000     1.35723    
Fe37     Fe     0.804770000000     0.887970000000     0.352260000000     1.36079    
Fe38     Fe     0.805270000000     0.988250000000     0.351970000000     1.36455    
Fe39     Fe     0.906300000000     0.989120000000     0.351930000000     1.35739    
Fe40     Fe     0.038260000000     0.855680000000     0.102260000000     1.36103    
Fe41     Fe     0.037770000000     0.755390000000     0.101970000000     1.36479    
Fe42     Fe     0.936730000000     0.754530000000     0.101930000000     1.35727    
Fe43     Fe     0.804770000000     0.887970000000     0.852260000000     1.36079    
Fe44     Fe     0.805270000000     0.988250000000     0.851970000000     1.36456    
Fe45     Fe     0.906300000000     0.989120000000     0.851940000000     1.35753    
Fe46     Fe     0.038260000000     0.855680000000     0.602260000000     1.36106    
Fe47     Fe     0.037770000000     0.755390000000     0.601970000000     1.36479    
Fe48     Fe     0.936730000000     0.754530000000     0.601930000000     1.35726    
H1       H      0.639170000000     0.433410000000     0.505570000000     0.0316608  
H2       H      0.139840000000     0.286530000000     0.007910000000     0.0342098  
H3       H      0.202600000000     0.317480000000     0.947680000000     0.0341662  
H4       H      0.205870000000     0.466350000000     0.448310000000     0.0316418  
H5       H      0.203870000000     0.310240000000     0.255560000000     0.0316826  
H6       H      0.203190000000     0.457110000000     0.257910000000     0.0341294  
H7       H      0.640440000000     0.426170000000     0.197670000000     0.0341611  
H8       H      0.637170000000     0.277300000000     0.198310000000     0.0316476  
H9       H      0.476800000000     0.591160000000     0.255890000000     0.0341988  
H10      H      0.326720000000     0.586900000000     0.255900000000     0.0316601  
H11      H      0.359190000000     0.153320000000     0.198710000000     0.0317395  
H12      H      0.507300000000     0.153690000000     0.195690000000     0.0341619  
H13      H      0.366230000000     0.152490000000     0.505890000000     0.0342048  
H14      H      0.516310000000     0.656740000000     0.005900000000     0.0317291  
H15      H      0.483840000000     0.590330000000     0.948700000000     0.0317157  
H16      H      0.335730000000     0.089950000000     0.445690000000     0.0341992  
H17      H      0.508070000000     0.426930000000     0.507650000000     0.0342324  
H18      H      0.359640000000     0.277620000000     0.005480000000     0.0318578  
H19      H      0.326930000000     0.310980000000     0.948360000000     0.0317426  
H20      H      0.477270000000     0.458410000000     0.447500000000     0.0342569  
H21      H      0.334970000000     0.316710000000     0.257650000000     0.0342503  
H22      H      0.483400000000     0.466020000000     0.255480000000     0.031781   
H23      H      0.516100000000     0.432660000000     0.198360000000     0.0317525  
H24      H      0.365760000000     0.285230000000     0.197500000000     0.0342395  
H25      H      0.639170000000     0.433400000000     0.005560000000     0.0317245  
H26      H      0.139840000000     0.286530000000     0.507910000000     0.0341543  
H27      H      0.202590000000     0.317480000000     0.447670000000     0.0341838  
H28      H      0.205870000000     0.466350000000     0.948310000000     0.0316156  
H29      H      0.203870000000     0.310240000000     0.755570000000     0.0316846  
H30      H      0.203190000000     0.457110000000     0.757910000000     0.034129   
H31      H      0.640440000000     0.426170000000     0.697680000000     0.0341493  
H32      H      0.637170000000     0.277300000000     0.698310000000     0.0316431  
H33      H      0.476800000000     0.591160000000     0.755890000000     0.0341984  
H34      H      0.326720000000     0.586900000000     0.755900000000     0.0316678  
H35      H      0.359190000000     0.153320000000     0.698710000000     0.0317393  
H36      H      0.507300000000     0.153690000000     0.695690000000     0.0341684  
H37      H      0.366230000000     0.152480000000     0.005890000000     0.0342641  
H38      H      0.516320000000     0.656740000000     0.505900000000     0.0316586  
H39      H      0.483840000000     0.590320000000     0.448710000000     0.0317282  
H40      H      0.335730000000     0.089950000000     0.945690000000     0.0341783  
H41      H      0.508070000000     0.426930000000     0.007650000000     0.0342955  
H42      H      0.359640000000     0.277620000000     0.505480000000     0.0318008  
H43      H      0.326930000000     0.310980000000     0.448360000000     0.0317611  
H44      H      0.477270000000     0.458420000000     0.947500000000     0.0342394  
H45      H      0.334970000000     0.316710000000     0.757650000000     0.034251   
H46      H      0.483400000000     0.466020000000     0.755480000000     0.0317801  
H47      H      0.516100000000     0.432660000000     0.698360000000     0.0317485  
H48      H      0.365760000000     0.285230000000     0.697500000000     0.0342416  
H49      H      0.639170000000     0.933400000000     0.505570000000     0.0316601  
H50      H      0.139840000000     0.786530000000     0.007910000000     0.034193   
H51      H      0.202590000000     0.817480000000     0.947680000000     0.0341677  
H52      H      0.205870000000     0.966350000000     0.448310000000     0.0316247  
H53      H      0.203870000000     0.810240000000     0.255560000000     0.0316841  
H54      H      0.203190000000     0.957120000000     0.257910000000     0.0340898  
H55      H      0.640440000000     0.926170000000     0.197670000000     0.0341543  
H56      H      0.637170000000     0.777300000000     0.198310000000     0.0316139  
H57      H      0.476800000000     0.091160000000     0.255890000000     0.0342247  
H58      H      0.326720000000     0.086910000000     0.255900000000     0.0316813  
H59      H      0.359190000000     0.653310000000     0.198700000000     0.0317338  
H60      H      0.507300000000     0.653690000000     0.195690000000     0.0341454  
H61      H      0.366230000000     0.652490000000     0.505890000000     0.0341969  
H62      H      0.516320000000     0.156740000000     0.005900000000     0.031741   
H63      H      0.483850000000     0.090330000000     0.948700000000     0.0317252  
H64      H      0.335740000000     0.589950000000     0.445690000000     0.0341764  
H65      H      0.508070000000     0.926930000000     0.507650000000     0.0342155  
H66      H      0.359640000000     0.777620000000     0.005480000000     0.0318515  
H67      H      0.326930000000     0.810980000000     0.948360000000     0.0317176  
H68      H      0.477270000000     0.958410000000     0.447500000000     0.0342299  
H69      H      0.334970000000     0.816710000000     0.257650000000     0.0342464  
H70      H      0.483400000000     0.966020000000     0.255480000000     0.0317546  
H71      H      0.516110000000     0.932660000000     0.198360000000     0.0317321  
H72      H      0.365760000000     0.785230000000     0.197500000000     0.0342356  
H73      H      0.639170000000     0.933400000000     0.005560000000     0.0317163  
H74      H      0.139840000000     0.786520000000     0.507910000000     0.0341322  
H75      H      0.202590000000     0.817480000000     0.447670000000     0.0341771  
H76      H      0.205860000000     0.966340000000     0.948310000000     0.0316008  
H77      H      0.203870000000     0.810240000000     0.755570000000     0.0316869  
H78      H      0.203190000000     0.957120000000     0.757910000000     0.0340896  
H79      H      0.640440000000     0.926170000000     0.697680000000     0.0341425  
H80      H      0.637170000000     0.777300000000     0.698310000000     0.0316093  
H81      H      0.476800000000     0.091160000000     0.755890000000     0.0342242  
H82      H      0.326720000000     0.086910000000     0.755900000000     0.0316889  
H83      H      0.359190000000     0.653310000000     0.698700000000     0.0317331  
H84      H      0.507300000000     0.653690000000     0.695690000000     0.0341428  
H85      H      0.366230000000     0.652490000000     0.005890000000     0.0342609  
H86      H      0.516320000000     0.156740000000     0.505900000000     0.0316825  
H87      H      0.483850000000     0.090330000000     0.448700000000     0.0317446  
H88      H      0.335730000000     0.589950000000     0.945690000000     0.0341437  
H89      H      0.508070000000     0.926930000000     0.007650000000     0.0342821  
H90      H      0.359640000000     0.777620000000     0.505480000000     0.0317893  
H91      H      0.326930000000     0.810980000000     0.448360000000     0.0317518  
H92      H      0.477270000000     0.958410000000     0.947500000000     0.0342067  
H93      H      0.334970000000     0.816710000000     0.757650000000     0.0342475  
H94      H      0.483400000000     0.966020000000     0.755480000000     0.0317539  
H95      H      0.516110000000     0.932660000000     0.698360000000     0.0317281  
H96      H      0.365760000000     0.785230000000     0.697500000000     0.0342377  
H97      H      0.139170000000     0.433410000000     0.505570000000     0.0316781  
H98      H      0.639840000000     0.286530000000     0.007910000000     0.0341965  
H99      H      0.702600000000     0.317480000000     0.947680000000     0.0341557  
H100     H      0.705860000000     0.466340000000     0.448310000000     0.0316305  
H101     H      0.703860000000     0.310240000000     0.255570000000     0.0316736  
H102     H      0.703200000000     0.457120000000     0.257910000000     0.0341211  
H103     H      0.140440000000     0.426160000000     0.197680000000     0.0341746  
H104     H      0.137170000000     0.277300000000     0.198310000000     0.0316641  
H105     H      0.976800000000     0.591160000000     0.255890000000     0.0341281  
H106     H      0.826720000000     0.586900000000     0.255900000000     0.0316502  
H107     H      0.859190000000     0.153320000000     0.198710000000     0.0317397  
H108     H      0.007300000000     0.153690000000     0.195690000000     0.034371   
H109     H      0.866230000000     0.152490000000     0.505890000000     0.0342138  
H110     H      0.016310000000     0.656740000000     0.005900000000     0.0319288  
H111     H      0.983840000000     0.590330000000     0.948700000000     0.0316476  
H112     H      0.835730000000     0.089950000000     0.445690000000     0.0341763  
H113     H      0.008070000000     0.426930000000     0.507650000000     0.0344443  
H114     H      0.859640000000     0.277620000000     0.005480000000     0.0318429  
H115     H      0.826930000000     0.310980000000     0.948360000000     0.0317264  
H116     H      0.977270000000     0.458410000000     0.447500000000     0.0341884  
H117     H      0.834970000000     0.316710000000     0.257650000000     0.0342417  
H118     H      0.983400000000     0.466020000000     0.255480000000     0.0316989  
H119     H      0.016100000000     0.432660000000     0.198360000000     0.0319534  
H120     H      0.865770000000     0.285230000000     0.197500000000     0.0342529  
H121     H      0.139170000000     0.433410000000     0.005570000000     0.0317403  
H122     H      0.639840000000     0.286530000000     0.507910000000     0.0341385  
H123     H      0.702600000000     0.317480000000     0.447680000000     0.0341739  
H124     H      0.705860000000     0.466340000000     0.948310000000     0.0316107  
H125     H      0.703860000000     0.310240000000     0.755570000000     0.0316734  
H126     H      0.703200000000     0.457120000000     0.757910000000     0.0341205  
H127     H      0.140440000000     0.426160000000     0.697680000000     0.0341674  
H128     H      0.137170000000     0.277300000000     0.698310000000     0.03166    
H129     H      0.976800000000     0.591160000000     0.755890000000     0.034128   
H130     H      0.826720000000     0.586900000000     0.755900000000     0.0316578  
H131     H      0.859190000000     0.153320000000     0.698710000000     0.0317378  
H132     H      0.007300000000     0.153690000000     0.695690000000     0.0343677  
H133     H      0.866230000000     0.152480000000     0.005890000000     0.034273   
H134     H      0.016320000000     0.656740000000     0.505900000000     0.0318518  
H135     H      0.983840000000     0.590320000000     0.448710000000     0.0316743  
H136     H      0.835730000000     0.089950000000     0.945690000000     0.0341554  
H137     H      0.008070000000     0.426930000000     0.007650000000     0.0345071  
H138     H      0.859640000000     0.277620000000     0.505480000000     0.0317984  
H139     H      0.826930000000     0.310980000000     0.448360000000     0.0317565  
H140     H      0.977270000000     0.458420000000     0.947500000000     0.0341711  
H141     H      0.834970000000     0.316710000000     0.757650000000     0.0342417  
H142     H      0.983400000000     0.466020000000     0.755480000000     0.0316979  
H143     H      0.016100000000     0.432660000000     0.698360000000     0.0319517  
H144     H      0.865770000000     0.285230000000     0.697500000000     0.0342515  
H145     H      0.139170000000     0.933410000000     0.505570000000     0.0316695  
H146     H      0.639840000000     0.786530000000     0.007910000000     0.034185   
H147     H      0.702600000000     0.817480000000     0.947680000000     0.0341418  
H148     H      0.705860000000     0.966340000000     0.448310000000     0.0316107  
H149     H      0.703860000000     0.810240000000     0.255570000000     0.0316743  
H150     H      0.703200000000     0.957120000000     0.257910000000     0.0340864  
H151     H      0.140440000000     0.926170000000     0.197680000000     0.0341633  
H152     H      0.137170000000     0.777300000000     0.198310000000     0.031631   
H153     H      0.976800000000     0.091150000000     0.255890000000     0.0341556  
H154     H      0.826720000000     0.086910000000     0.255900000000     0.0316709  
H155     H      0.859190000000     0.653310000000     0.198700000000     0.0317333  
H156     H      0.007300000000     0.653690000000     0.195690000000     0.0343576  
H157     H      0.866230000000     0.652490000000     0.505890000000     0.034198   
H158     H      0.016320000000     0.156740000000     0.005900000000     0.0319347  
H159     H      0.983850000000     0.090330000000     0.948700000000     0.0316648  
H160     H      0.835740000000     0.589950000000     0.445690000000     0.0341684  
H161     H      0.008070000000     0.926930000000     0.507650000000     0.0344278  
H162     H      0.859640000000     0.777620000000     0.005480000000     0.0318448  
H163     H      0.826930000000     0.810980000000     0.948360000000     0.0317057  
H164     H      0.977270000000     0.958410000000     0.447500000000     0.0341576  
H165     H      0.834970000000     0.816710000000     0.257650000000     0.034243   
H166     H      0.983390000000     0.966020000000     0.255480000000     0.0316796  
H167     H      0.016100000000     0.932660000000     0.198360000000     0.031932   
H168     H      0.865760000000     0.785230000000     0.197500000000     0.0342385  
H169     H      0.139170000000     0.933410000000     0.005570000000     0.0317303  
H170     H      0.639840000000     0.786530000000     0.507910000000     0.0341327  
H171     H      0.702600000000     0.817480000000     0.447680000000     0.0341427  
H172     H      0.705860000000     0.966340000000     0.948310000000     0.0315935  
H173     H      0.703860000000     0.810240000000     0.755570000000     0.031674   
H174     H      0.703200000000     0.957120000000     0.757910000000     0.0340858  
H175     H      0.140440000000     0.926170000000     0.697680000000     0.0341561  
H176     H      0.137170000000     0.777300000000     0.698310000000     0.0316267  
H177     H      0.976800000000     0.091160000000     0.755890000000     0.034156   
H178     H      0.826720000000     0.086910000000     0.755900000000     0.0316787  
H179     H      0.859190000000     0.653310000000     0.698700000000     0.0317315  
H180     H      0.007300000000     0.653690000000     0.695690000000     0.034355   
H181     H      0.866230000000     0.652490000000     0.005890000000     0.0342562  
H182     H      0.016320000000     0.156740000000     0.505900000000     0.0318763  
H183     H      0.983850000000     0.090330000000     0.448700000000     0.0316848  
H184     H      0.835730000000     0.589950000000     0.945690000000     0.0341503  
H185     H      0.008070000000     0.926930000000     0.007650000000     0.0344913  
H186     H      0.859640000000     0.777620000000     0.505480000000     0.0317834  
H187     H      0.826930000000     0.810980000000     0.448360000000     0.0317414  
H188     H      0.977270000000     0.958420000000     0.947500000000     0.0341385  
H189     H      0.834970000000     0.816710000000     0.757650000000     0.034243   
H190     H      0.983390000000     0.966020000000     0.755480000000     0.0316791  
H191     H      0.016100000000     0.932660000000     0.698360000000     0.0319304  
H192     H      0.865760000000     0.785230000000     0.697500000000     0.034237   
N1       N      0.634860000000     0.357680000000     0.011090000000    -0.198817   
N2       N      0.208930000000     0.394210000000     0.443670000000    -0.198718   
N3       N      0.208170000000     0.385970000000     0.261090000000    -0.198843   
N4       N      0.634110000000     0.349440000000     0.193670000000    -0.198709   
N5       N      0.399480000000     0.584300000000     0.260220000000    -0.198413   
N6       N      0.435500000000     0.158140000000     0.192810000000    -0.19869    
N7       N      0.443550000000     0.159350000000     0.010220000000    -0.198331   
N8       N      0.407540000000     0.585510000000     0.442810000000    -0.198594   
N9       N      0.436170000000     0.349920000000     0.010960000000    -0.198189   
N10      N      0.399780000000     0.387100000000     0.443570000000    -0.198097   
N11      N      0.406860000000     0.393730000000     0.260960000000    -0.198301   
N12      N      0.443250000000     0.356540000000     0.193570000000    -0.198129   
N13      N      0.634860000000     0.357680000000     0.511090000000    -0.198894   
N14      N      0.208920000000     0.394210000000     0.943670000000    -0.198698   
N15      N      0.208170000000     0.385970000000     0.761090000000    -0.198843   
N16      N      0.634110000000     0.349440000000     0.693670000000    -0.198751   
N17      N      0.399480000000     0.584300000000     0.760220000000    -0.198404   
N18      N      0.435500000000     0.158140000000     0.692810000000    -0.198683   
N19      N      0.443550000000     0.159350000000     0.510220000000    -0.198405   
N20      N      0.407530000000     0.585500000000     0.942810000000    -0.19867    
N21      N      0.436170000000     0.349920000000     0.510960000000    -0.198242   
N22      N      0.399780000000     0.387100000000     0.943570000000    -0.19812    
N23      N      0.406860000000     0.393730000000     0.760960000000    -0.198294   
N24      N      0.443250000000     0.356540000000     0.693570000000    -0.19815    
N25      N      0.634860000000     0.857670000000     0.011090000000    -0.198784   
N26      N      0.208930000000     0.894210000000     0.443670000000    -0.198731   
N27      N      0.208170000000     0.885970000000     0.261090000000    -0.198845   
N28      N      0.634110000000     0.849430000000     0.193670000000    -0.198748   
N29      N      0.399480000000     0.084300000000     0.260220000000    -0.198397   
N30      N      0.435500000000     0.658140000000     0.192810000000    -0.198689   
N31      N      0.443550000000     0.659340000000     0.010220000000    -0.198292   
N32      N      0.407540000000     0.085510000000     0.442810000000    -0.198586   
N33      N      0.436170000000     0.849920000000     0.010960000000    -0.198189   
N34      N      0.399780000000     0.887100000000     0.443570000000    -0.198094   
N35      N      0.406860000000     0.893730000000     0.260960000000    -0.198301   
N36      N      0.443250000000     0.856540000000     0.193570000000    -0.198156   
N37      N      0.634860000000     0.857670000000     0.511090000000    -0.198853   
N38      N      0.208920000000     0.894210000000     0.943670000000    -0.198674   
N39      N      0.208170000000     0.885970000000     0.761090000000    -0.198844   
N40      N      0.634110000000     0.849430000000     0.693670000000    -0.19879    
N41      N      0.399480000000     0.084300000000     0.760220000000    -0.198387   
N42      N      0.435500000000     0.658140000000     0.692810000000    -0.198689   
N43      N      0.443550000000     0.659340000000     0.510220000000    -0.198374   
N44      N      0.407540000000     0.085510000000     0.942810000000    -0.198622   
N45      N      0.436170000000     0.849920000000     0.510960000000    -0.198251   
N46      N      0.399780000000     0.887100000000     0.943570000000    -0.198134   
N47      N      0.406860000000     0.893730000000     0.760960000000    -0.198293   
N48      N      0.443250000000     0.856540000000     0.693570000000    -0.198177   
N49      N      0.134860000000     0.357680000000     0.011090000000    -0.198814   
N50      N      0.708930000000     0.394210000000     0.443670000000    -0.198713   
N51      N      0.708170000000     0.385970000000     0.261090000000    -0.198845   
N52      N      0.134110000000     0.349440000000     0.193670000000    -0.198701   
N53      N      0.899480000000     0.584300000000     0.260220000000    -0.198434   
N54      N      0.935500000000     0.158140000000     0.192810000000    -0.198653   
N55      N      0.943550000000     0.159350000000     0.010220000000    -0.198257   
N56      N      0.907540000000     0.585510000000     0.442810000000    -0.198594   
N57      N      0.936170000000     0.349920000000     0.010960000000    -0.198169   
N58      N      0.899780000000     0.387100000000     0.443570000000    -0.198088   
N59      N      0.906860000000     0.393730000000     0.260960000000    -0.198325   
N60      N      0.943250000000     0.356540000000     0.193570000000    -0.198074   
N61      N      0.134860000000     0.357680000000     0.511090000000    -0.198887   
N62      N      0.708930000000     0.394210000000     0.943670000000    -0.19873    
N63      N      0.708170000000     0.385970000000     0.761090000000    -0.198844   
N64      N      0.134110000000     0.349440000000     0.693670000000    -0.198744   
N65      N      0.899480000000     0.584300000000     0.760220000000    -0.198425   
N66      N      0.935500000000     0.158140000000     0.692810000000    -0.198655   
N67      N      0.943550000000     0.159350000000     0.510220000000    -0.198332   
N68      N      0.907540000000     0.585500000000     0.942810000000    -0.198671   
N69      N      0.936170000000     0.349920000000     0.510960000000    -0.198208   
N70      N      0.899780000000     0.387100000000     0.943570000000    -0.198124   
N71      N      0.906860000000     0.393730000000     0.760960000000    -0.198319   
N72      N      0.943250000000     0.356540000000     0.693570000000    -0.198075   
N73      N      0.134860000000     0.857670000000     0.011090000000    -0.198785   
N74      N      0.708930000000     0.894210000000     0.443670000000    -0.198753   
N75      N      0.708170000000     0.885970000000     0.261090000000    -0.198845   
N76      N      0.134110000000     0.849430000000     0.193670000000    -0.198742   
N77      N      0.899480000000     0.084300000000     0.260220000000    -0.198419   
N78      N      0.935500000000     0.658140000000     0.192810000000    -0.198653   
N79      N      0.943550000000     0.659340000000     0.010220000000    -0.198224   
N80      N      0.907530000000     0.085510000000     0.442810000000    -0.198607   
N81      N      0.936170000000     0.849920000000     0.010960000000    -0.198184   
N82      N      0.899780000000     0.887100000000     0.443570000000    -0.198116   
N83      N      0.906870000000     0.893730000000     0.260960000000    -0.198286   
N84      N      0.943250000000     0.856540000000     0.193570000000    -0.198101   
N85      N      0.134860000000     0.857670000000     0.511090000000    -0.19886    
N86      N      0.708930000000     0.894210000000     0.943670000000    -0.198752   
N87      N      0.708170000000     0.885970000000     0.761090000000    -0.198844   
N88      N      0.134110000000     0.849430000000     0.693670000000    -0.198785   
N89      N      0.899480000000     0.084300000000     0.760220000000    -0.198408   
N90      N      0.935500000000     0.658140000000     0.692810000000    -0.198654   
N91      N      0.943550000000     0.659340000000     0.510220000000    -0.198307   
N92      N      0.907530000000     0.085510000000     0.942810000000    -0.198644   
N93      N      0.936170000000     0.849920000000     0.510960000000    -0.198241   
N94      N      0.899780000000     0.887100000000     0.943570000000    -0.198156   
N95      N      0.906870000000     0.893730000000     0.760960000000    -0.198279   
N96      N      0.943250000000     0.856540000000     0.693570000000    -0.198102   
O1       O      0.414670000000     0.440960000000     0.384820000000    -0.498598   
O2       O      0.332150000000     0.518110000000     0.299930000000    -0.508916   
O3       O      0.332240000000     0.385080000000     0.404020000000    -0.507436   
O4       O      0.353380000000     0.379510000000     0.319930000000    -0.500505   
O5       O      0.409770000000     0.520170000000     0.403540000000    -0.506266   
O6       O      0.247340000000     0.438910000000     0.320270000000    -0.502233   
O7       O      0.338850000000     0.455100000000     0.352050000000    -0.867339   
O8       O      0.275250000000     0.461490000000     0.404020000000    -0.509015   
O9       O      0.247610000000     0.379530000000     0.384770000000    -0.499996   
O10      O      0.409390000000     0.461370000000     0.300350000000    -0.506345   
O11      O      0.274050000000     0.384420000000     0.300470000000    -0.507471   
O12      O      0.354560000000     0.546120000000     0.383590000000    -0.502561   
O13      O      0.414630000000     0.545690000000     0.318930000000    -0.498359   
O14      O      0.428370000000     0.302690000000     0.134820000000    -0.498762   
O15      O      0.510890000000     0.225530000000     0.049930000000    -0.508775   
O16      O      0.510790000000     0.358560000000     0.154020000000    -0.507641   
O17      O      0.489660000000     0.364130000000     0.069930000000    -0.500695   
O18      O      0.433270000000     0.223470000000     0.153540000000    -0.506242   
O19      O      0.595690000000     0.304740000000     0.070270000000    -0.502418   
O20      O      0.504190000000     0.288540000000     0.102050000000    -0.867202   
O21      O      0.567790000000     0.282150000000     0.154020000000    -0.508953   
O22      O      0.595420000000     0.364110000000     0.134770000000    -0.499969   
O23      O      0.433650000000     0.282280000000     0.050350000000    -0.506485   
O24      O      0.568990000000     0.359220000000     0.050470000000    -0.507663   
O25      O      0.488470000000     0.197530000000     0.133590000000    -0.502722   
O26      O      0.428400000000     0.197950000000     0.068930000000    -0.498171   
O27      O      0.414670000000     0.440960000000     0.884820000000    -0.498685   
O28      O      0.332150000000     0.518110000000     0.799930000000    -0.508908   
O29      O      0.332240000000     0.385080000000     0.904020000000    -0.507454   
O30      O      0.353380000000     0.379510000000     0.819930000000    -0.500492   
O31      O      0.409770000000     0.520170000000     0.903530000000    -0.50652    
O32      O      0.247340000000     0.438910000000     0.820270000000    -0.502234   
O33      O      0.338850000000     0.455100000000     0.852050000000    -0.867358   
O34      O      0.275250000000     0.461490000000     0.904020000000    -0.509007   
O35      O      0.247610000000     0.379530000000     0.884770000000    -0.499983   
O36      O      0.409390000000     0.461370000000     0.800350000000    -0.506245   
O37      O      0.274050000000     0.384420000000     0.800470000000    -0.507471   
O38      O      0.354560000000     0.546120000000     0.883590000000    -0.502599   
O39      O      0.414630000000     0.545690000000     0.818930000000    -0.4983     
O40      O      0.428370000000     0.302690000000     0.634830000000    -0.498785   
O41      O      0.510890000000     0.225530000000     0.549930000000    -0.508785   
O42      O      0.510790000000     0.358560000000     0.654020000000    -0.507684   
O43      O      0.489660000000     0.364130000000     0.569940000000    -0.500677   
O44      O      0.433270000000     0.223470000000     0.653540000000    -0.506228   
O45      O      0.595690000000     0.304740000000     0.570270000000    -0.502421   
O46      O      0.504190000000     0.288540000000     0.602050000000    -0.867198   
O47      O      0.567790000000     0.282150000000     0.654020000000    -0.50891    
O48      O      0.595420000000     0.364110000000     0.634770000000    -0.499879   
O49      O      0.433650000000     0.282280000000     0.550350000000    -0.506455   
O50      O      0.568990000000     0.359220000000     0.550470000000    -0.507687   
O51      O      0.488470000000     0.197530000000     0.633590000000    -0.502723   
O52      O      0.428400000000     0.197950000000     0.568930000000    -0.498172   
O53      O      0.414670000000     0.940960000000     0.384820000000    -0.498584   
O54      O      0.332150000000     0.018110000000     0.299930000000    -0.508795   
O55      O      0.332240000000     0.885090000000     0.404020000000    -0.50743    
O56      O      0.353380000000     0.879510000000     0.319930000000    -0.50049    
O57      O      0.409770000000     0.020170000000     0.403540000000    -0.506119   
O58      O      0.247340000000     0.938910000000     0.320270000000    -0.502242   
O59      O      0.338850000000     0.955110000000     0.352050000000    -0.867289   
O60      O      0.275250000000     0.961490000000     0.404020000000    -0.509082   
O61      O      0.247610000000     0.879540000000     0.384770000000    -0.500052   
O62      O      0.409390000000     0.961370000000     0.300350000000    -0.506357   
O63      O      0.274050000000     0.884420000000     0.300470000000    -0.507454   
O64      O      0.354560000000     0.046120000000     0.383590000000    -0.502468   
O65      O      0.414630000000     0.045690000000     0.318930000000    -0.498243   
O66      O      0.428370000000     0.802680000000     0.134820000000    -0.498733   
O67      O      0.510890000000     0.725530000000     0.049930000000    -0.508774   
O68      O      0.510790000000     0.858560000000     0.154020000000    -0.507591   
O69      O      0.489660000000     0.864130000000     0.069930000000    -0.500713   
O70      O      0.433270000000     0.723470000000     0.153540000000    -0.506315   
O71      O      0.595690000000     0.804730000000     0.070270000000    -0.502276   
O72      O      0.504190000000     0.788540000000     0.102050000000    -0.867037   
O73      O      0.567790000000     0.782160000000     0.154020000000    -0.50901    
O74      O      0.595420000000     0.864110000000     0.134770000000    -0.500016   
O75      O      0.433650000000     0.782280000000     0.050350000000    -0.506501   
O76      O      0.568990000000     0.859220000000     0.050470000000    -0.507614   
O77      O      0.488470000000     0.697530000000     0.133590000000    -0.502709   
O78      O      0.428400000000     0.697950000000     0.068930000000    -0.498177   
O79      O      0.414670000000     0.940960000000     0.884820000000    -0.498671   
O80      O      0.332150000000     0.018110000000     0.799930000000    -0.508784   
O81      O      0.332240000000     0.885090000000     0.904020000000    -0.507444   
O82      O      0.353380000000     0.879510000000     0.819930000000    -0.500478   
O83      O      0.409770000000     0.020170000000     0.903530000000    -0.506357   
O84      O      0.247340000000     0.938910000000     0.820270000000    -0.502247   
O85      O      0.338850000000     0.955110000000     0.852050000000    -0.86731    
O86      O      0.275250000000     0.961490000000     0.904020000000    -0.50903    
O87      O      0.247610000000     0.879530000000     0.884770000000    -0.499953   
O88      O      0.409390000000     0.961370000000     0.800350000000    -0.506256   
O89      O      0.274050000000     0.884420000000     0.800470000000    -0.507455   
O90      O      0.354560000000     0.046120000000     0.883590000000    -0.50249    
O91      O      0.414630000000     0.045690000000     0.818930000000    -0.498182   
O92      O      0.428370000000     0.802680000000     0.634830000000    -0.498756   
O93      O      0.510890000000     0.725530000000     0.549930000000    -0.508784   
O94      O      0.510790000000     0.858560000000     0.654020000000    -0.507633   
O95      O      0.489660000000     0.864130000000     0.569940000000    -0.500696   
O96      O      0.433270000000     0.723470000000     0.653540000000    -0.506301   
O97      O      0.595690000000     0.804730000000     0.570270000000    -0.502278   
O98      O      0.504190000000     0.788540000000     0.602050000000    -0.867033   
O99      O      0.567790000000     0.782160000000     0.654020000000    -0.508966   
O100     O      0.595420000000     0.864110000000     0.634770000000    -0.499926   
O101     O      0.433650000000     0.782280000000     0.550350000000    -0.506471   
O102     O      0.568990000000     0.859220000000     0.550470000000    -0.507638   
O103     O      0.488470000000     0.697530000000     0.633590000000    -0.502711   
O104     O      0.428400000000     0.697950000000     0.568930000000    -0.498179   
O105     O      0.914670000000     0.440960000000     0.384820000000    -0.498612   
O106     O      0.832150000000     0.518110000000     0.299930000000    -0.508915   
O107     O      0.832240000000     0.385080000000     0.404020000000    -0.507555   
O108     O      0.853380000000     0.379510000000     0.319930000000    -0.500504   
O109     O      0.909770000000     0.520170000000     0.403540000000    -0.506284   
O110     O      0.747340000000     0.438910000000     0.320270000000    -0.50224    
O111     O      0.838850000000     0.455100000000     0.352050000000    -0.867331   
O112     O      0.775250000000     0.461490000000     0.404020000000    -0.509017   
O113     O      0.747610000000     0.379530000000     0.384770000000    -0.500001   
O114     O      0.909380000000     0.461370000000     0.300350000000    -0.506365   
O115     O      0.774050000000     0.384420000000     0.300470000000    -0.507471   
O116     O      0.854560000000     0.546120000000     0.383590000000    -0.502567   
O117     O      0.914630000000     0.545690000000     0.318930000000    -0.498376   
O118     O      0.928370000000     0.302690000000     0.134830000000    -0.498726   
O119     O      0.010890000000     0.225530000000     0.049930000000    -0.508576   
O120     O      0.010790000000     0.358560000000     0.154020000000    -0.507479   
O121     O      0.989660000000     0.364130000000     0.069930000000    -0.500841   
O122     O      0.933270000000     0.223470000000     0.153540000000    -0.506321   
O123     O      0.095690000000     0.304740000000     0.070270000000    -0.502433   
O124     O      0.004190000000     0.288540000000     0.102050000000    -0.867083   
O125     O      0.067790000000     0.282150000000     0.154020000000    -0.508917   
O126     O      0.095420000000     0.364110000000     0.134770000000    -0.499982   
O127     O      0.933650000000     0.282280000000     0.050350000000    -0.506499   
O128     O      0.068990000000     0.359220000000     0.050470000000    -0.507632   
O129     O      0.988470000000     0.197530000000     0.133590000000    -0.502777   
O130     O      0.928400000000     0.197950000000     0.068930000000    -0.498102   
O131     O      0.914670000000     0.440960000000     0.884820000000    -0.4987     
O132     O      0.832150000000     0.518110000000     0.799930000000    -0.508908   
O133     O      0.832240000000     0.385080000000     0.904020000000    -0.507574   
O134     O      0.853380000000     0.379510000000     0.819930000000    -0.500492   
O135     O      0.909770000000     0.520170000000     0.903530000000    -0.506536   
O136     O      0.747340000000     0.438910000000     0.820270000000    -0.502243   
O137     O      0.838850000000     0.455100000000     0.852050000000    -0.867351   
O138     O      0.775250000000     0.461490000000     0.904020000000    -0.509024   
O139     O      0.747610000000     0.379530000000     0.884770000000    -0.500005   
O140     O      0.909380000000     0.461370000000     0.800350000000    -0.506265   
O141     O      0.774050000000     0.384420000000     0.800470000000    -0.507471   
O142     O      0.854560000000     0.546120000000     0.883590000000    -0.502608   
O143     O      0.914630000000     0.545690000000     0.818930000000    -0.498317   
O144     O      0.928370000000     0.302690000000     0.634830000000    -0.498719   
O145     O      0.010890000000     0.225530000000     0.549930000000    -0.508587   
O146     O      0.010790000000     0.358560000000     0.654020000000    -0.507483   
O147     O      0.989660000000     0.364130000000     0.569940000000    -0.500813   
O148     O      0.933270000000     0.223470000000     0.653540000000    -0.506322   
O149     O      0.095690000000     0.304740000000     0.570270000000    -0.502435   
O150     O      0.004190000000     0.288540000000     0.602050000000    -0.867086   
O151     O      0.067790000000     0.282150000000     0.654020000000    -0.508874   
O152     O      0.095420000000     0.364110000000     0.634770000000    -0.499895   
O153     O      0.933650000000     0.282280000000     0.550350000000    -0.506468   
O154     O      0.068990000000     0.359220000000     0.550470000000    -0.507655   
O155     O      0.988470000000     0.197530000000     0.633590000000    -0.502782   
O156     O      0.928400000000     0.197950000000     0.568930000000    -0.498112   
O157     O      0.914670000000     0.940960000000     0.384820000000    -0.498601   
O158     O      0.832150000000     0.018110000000     0.299930000000    -0.508797   
O159     O      0.832240000000     0.885090000000     0.404020000000    -0.507432   
O160     O      0.853380000000     0.879510000000     0.319930000000    -0.500481   
O161     O      0.909770000000     0.020170000000     0.403540000000    -0.506132   
O162     O      0.747340000000     0.938910000000     0.320270000000    -0.502249   
O163     O      0.838850000000     0.955110000000     0.352050000000    -0.867279   
O164     O      0.775250000000     0.961490000000     0.404020000000    -0.509083   
O165     O      0.747610000000     0.879540000000     0.384770000000    -0.50006    
O166     O      0.909390000000     0.961370000000     0.300350000000    -0.506355   
O167     O      0.774050000000     0.884420000000     0.300470000000    -0.507456   
O168     O      0.854560000000     0.046120000000     0.383590000000    -0.502471   
O169     O      0.914630000000     0.045690000000     0.318930000000    -0.498263   
O170     O      0.928370000000     0.802680000000     0.134830000000    -0.498702   
O171     O      0.010890000000     0.725530000000     0.049930000000    -0.508571   
O172     O      0.010790000000     0.858560000000     0.154020000000    -0.507429   
O173     O      0.989660000000     0.864130000000     0.069930000000    -0.500794   
O174     O      0.933270000000     0.723470000000     0.153540000000    -0.506309   
O175     O      0.095690000000     0.804730000000     0.070270000000    -0.502292   
O176     O      0.004190000000     0.788540000000     0.102050000000    -0.866912   
O177     O      0.067790000000     0.782160000000     0.154020000000    -0.508977   
O178     O      0.095420000000     0.864110000000     0.134770000000    -0.500029   
O179     O      0.933650000000     0.782280000000     0.050350000000    -0.506477   
O180     O      0.068990000000     0.859220000000     0.050470000000    -0.507577   
O181     O      0.988470000000     0.697530000000     0.133590000000    -0.502841   
O182     O      0.928400000000     0.697950000000     0.068930000000    -0.498103   
O183     O      0.914670000000     0.940960000000     0.884820000000    -0.498689   
O184     O      0.832150000000     0.018110000000     0.799930000000    -0.508789   
O185     O      0.832240000000     0.885090000000     0.904020000000    -0.507452   
O186     O      0.853380000000     0.879510000000     0.819930000000    -0.500469   
O187     O      0.909770000000     0.020170000000     0.903530000000    -0.506371   
O188     O      0.747340000000     0.938910000000     0.820270000000    -0.502251   
O189     O      0.838850000000     0.955110000000     0.852050000000    -0.867298   
O190     O      0.775250000000     0.961490000000     0.904020000000    -0.50909    
O191     O      0.747610000000     0.879540000000     0.884770000000    -0.500062   
O192     O      0.909390000000     0.961370000000     0.800350000000    -0.506253   
O193     O      0.774050000000     0.884420000000     0.800470000000    -0.507455   
O194     O      0.854560000000     0.046120000000     0.883590000000    -0.502494   
O195     O      0.914630000000     0.045690000000     0.818930000000    -0.498202   
O196     O      0.928370000000     0.802680000000     0.634830000000    -0.498695   
O197     O      0.010890000000     0.725530000000     0.549930000000    -0.508583   
O198     O      0.010790000000     0.858560000000     0.654020000000    -0.507433   
O199     O      0.989660000000     0.864130000000     0.569940000000    -0.500768   
O200     O      0.933270000000     0.723470000000     0.653540000000    -0.50631    
O201     O      0.095690000000     0.804730000000     0.570270000000    -0.502295   
O202     O      0.004190000000     0.788540000000     0.602050000000    -0.866915   
O203     O      0.067790000000     0.782160000000     0.654020000000    -0.508935   
O204     O      0.095420000000     0.864110000000     0.634770000000    -0.499941   
O205     O      0.933650000000     0.782280000000     0.550350000000    -0.506447   
O206     O      0.068990000000     0.859220000000     0.550470000000    -0.5076     
O207     O      0.988470000000     0.697530000000     0.633590000000    -0.502846   
O208     O      0.928400000000     0.697950000000     0.568930000000    -0.498113   


