data_structure

_audit_creation_method RASPA-1.0
_audit_creation_date 2023-6-4
_audit_author_name 'Poobodin Mano'

_cell_length_a    28.9248
_cell_length_b    29.0754
_cell_length_c    30.7804
_cell_angle_alpha 90
_cell_angle_beta  90
_cell_angle_gamma 120
_cell_volume      22418.2

_symmetry_cell_setting          triclinic
_symmetry_space_group_name_Hall 'P 1'
_symmetry_space_group_name_H-M  'P 1'
_symmetry_Int_Tables_number     1

_symmetry_equiv_pos_as_xyz 'x,y,z'

loop_
_atom_site_label
_atom_site_type_symbol
_atom_site_fract_x
_atom_site_fract_y
_atom_site_fract_z
_atom_site_charge
C1       C      0.222660000000     0.383430000000     0.388650000000     0.528538   
C2       C      0.225290000000     0.375360000000     0.272150000000     0.528567   
C3       C      0.370100000000     0.385450000000     0.275440000000     0.527828   
C4       C      0.363940000000     0.520500000000     0.389710000000     0.529239   
C5       C      0.359160000000     0.518600000000     0.272560000000     0.525936   
C6       C      0.359360000000     0.378410000000     0.392150000000     0.527105   
C7       C      0.432260000000     0.165920000000     0.139400000000     0.531801   
C8       C      0.439140000000     0.167650000000     0.023330000000     0.529368   
C9       C      0.576060000000     0.310410000000     0.022970000000     0.530426   
C10      C      0.443140000000     0.311870000000     0.141220000000     0.530458   
C11      C      0.431360000000     0.303380000000     0.025970000000     0.532019   
C12      C      0.578640000000     0.301450000000     0.138160000000     0.531895   
C13      C      0.164810000000     0.314780000000     0.936930000000     0.032306   
C14      C      0.671100000000     0.398700000000     0.440370000000     0.00162759 
C15      C      0.129410000000     0.297600000000     0.971950000000     0.0354591  
C16      C      0.634280000000     0.381450000000     0.474700000000     0.113094   
C17      C      0.621900000000     0.421720000000     0.494710000000    -0.196855   
C18      C      0.167100000000     0.385510000000     0.223870000000     0.0318101  
C19      C      0.177350000000     0.310210000000     0.218220000000     0.00106395 
C20      C      0.631710000000     0.367350000000     0.188960000000     0.0367202  
C21      C      0.639780000000     0.290210000000     0.184330000000     0.114645   
C22      C      0.628540000000     0.238530000000     0.163300000000    -0.199084   
C23      C      0.428560000000     0.577900000000     0.225300000000     0.0314962  
C24      C      0.342370000000     0.566890000000     0.218810000000     0.000910773
C25      C      0.445860000000     0.113430000000     0.190470000000     0.0370691  
C26      C      0.359920000000     0.104470000000     0.185130000000     0.114305   
C27      C      0.319040000000     0.115200000000     0.163780000000    -0.198318   
C28      C      0.451590000000     0.114290000000     0.471600000000     0.0316804  
C29      C      0.369560000000     0.612950000000     0.974700000000     0.00177376 
C30      C      0.431390000000     0.075840000000     0.439060000000     0.0350106  
C31      C      0.349950000000     0.576890000000     0.939800000000     0.116521   
C32      C      0.293840000000     0.559010000000     0.924370000000    -0.206085   
C33      C      0.427740000000     0.388740000000     0.940890000000     0.0314011  
C34      C      0.342240000000     0.312710000000     0.445390000000     0.000840244
C35      C      0.444690000000     0.370200000000     0.975780000000     0.0367329  
C36      C      0.359440000000     0.292500000000     0.479280000000     0.11416    
C37      C      0.318590000000     0.240310000000     0.499580000000    -0.197947   
C38      C      0.360010000000     0.316410000000     0.228160000000     0.0317876  
C39      C      0.436020000000     0.401580000000     0.222200000000     0.00108557 
C40      C      0.377980000000     0.298980000000     0.193240000000     0.0363055  
C41      C      0.455800000000     0.383860000000     0.188270000000     0.114336   
C42      C      0.507780000000     0.424130000000     0.167130000000    -0.198762   
C43      C      0.222660000000     0.383430000000     0.888650000000     0.528544   
C44      C      0.225290000000     0.375360000000     0.772150000000     0.528653   
C45      C      0.370100000000     0.385450000000     0.775440000000     0.527707   
C46      C      0.363940000000     0.520500000000     0.889710000000     0.529241   
C47      C      0.359160000000     0.518600000000     0.772560000000     0.525935   
C48      C      0.359360000000     0.378410000000     0.892150000000     0.527114   
C49      C      0.432260000000     0.165920000000     0.639400000000     0.531919   
C50      C      0.439140000000     0.167650000000     0.523330000000     0.52942    
C51      C      0.576060000000     0.310410000000     0.522970000000     0.530601   
C52      C      0.443140000000     0.311870000000     0.641220000000     0.53046    
C53      C      0.431360000000     0.303380000000     0.525970000000     0.532082   
C54      C      0.578640000000     0.301450000000     0.638160000000     0.531885   
C55      C      0.164810000000     0.314780000000     0.436930000000     0.0322973  
C56      C      0.671100000000     0.398700000000     0.940370000000     0.00164064 
C57      C      0.129410000000     0.297600000000     0.471950000000     0.0354617  
C58      C      0.634280000000     0.381450000000     0.974700000000     0.113081   
C59      C      0.621900000000     0.421720000000     0.994710000000    -0.196758   
C60      C      0.167100000000     0.385510000000     0.723870000000     0.0318189  
C61      C      0.177350000000     0.310210000000     0.718220000000     0.00106315 
C62      C      0.631710000000     0.367350000000     0.688960000000     0.0367168  
C63      C      0.639780000000     0.290210000000     0.684330000000     0.114646   
C64      C      0.628540000000     0.238530000000     0.663300000000    -0.199087   
C65      C      0.428560000000     0.577900000000     0.725300000000     0.0314948  
C66      C      0.342370000000     0.566890000000     0.718810000000     0.000909809
C67      C      0.445860000000     0.113430000000     0.690470000000     0.0370793  
C68      C      0.359920000000     0.104470000000     0.685130000000     0.114309   
C69      C      0.319040000000     0.115200000000     0.663780000000    -0.198323   
C70      C      0.451590000000     0.114290000000     0.971600000000     0.0316872  
C71      C      0.369560000000     0.612950000000     0.474700000000     0.00176869 
C72      C      0.431390000000     0.075840000000     0.939060000000     0.0350155  
C73      C      0.349950000000     0.576890000000     0.439800000000     0.116512   
C74      C      0.293840000000     0.559010000000     0.424370000000    -0.206076   
C75      C      0.427740000000     0.388740000000     0.440890000000     0.031395   
C76      C      0.342240000000     0.312710000000     0.945390000000     0.000852834
C77      C      0.444690000000     0.370200000000     0.475780000000     0.036727   
C78      C      0.359440000000     0.292500000000     0.979280000000     0.114149   
C79      C      0.318590000000     0.240310000000     0.999580000000    -0.197853   
C80      C      0.360010000000     0.316410000000     0.728160000000     0.0317788  
C81      C      0.436020000000     0.401580000000     0.722200000000     0.00108244 
C82      C      0.377980000000     0.298980000000     0.693240000000     0.0363104  
C83      C      0.455800000000     0.383860000000     0.688270000000     0.114341   
C84      C      0.507780000000     0.424130000000     0.667130000000    -0.198765   
C85      C      0.222670000000     0.883440000000     0.388650000000     0.528571   
C86      C      0.225290000000     0.875360000000     0.272150000000     0.528551   
C87      C      0.370100000000     0.885450000000     0.275440000000     0.527811   
C88      C      0.363940000000     0.020500000000     0.389710000000     0.529375   
C89      C      0.359160000000     0.018600000000     0.272560000000     0.526073   
C90      C      0.359360000000     0.878410000000     0.392150000000     0.52716    
C91      C      0.432260000000     0.665920000000     0.139400000000     0.531799   
C92      C      0.439140000000     0.667650000000     0.023330000000     0.529367   
C93      C      0.576060000000     0.810400000000     0.022970000000     0.530425   
C94      C      0.443140000000     0.811870000000     0.141220000000     0.530454   
C95      C      0.431350000000     0.803380000000     0.025970000000     0.531943   
C96      C      0.578640000000     0.801450000000     0.138160000000     0.532064   
C97      C      0.164810000000     0.814790000000     0.936930000000     0.0324013  
C98      C      0.671100000000     0.898700000000     0.440370000000     0.00158927 
C99      C      0.129410000000     0.797600000000     0.971950000000     0.0353506  
C100     C      0.634280000000     0.881450000000     0.474700000000     0.11315    
C101     C      0.621900000000     0.921720000000     0.494710000000    -0.19687    
C102     C      0.167100000000     0.885520000000     0.223870000000     0.0317254  
C103     C      0.177350000000     0.810210000000     0.218220000000     0.00107938 
C104     C      0.631710000000     0.867350000000     0.188960000000     0.0367459  
C105     C      0.639780000000     0.790210000000     0.184330000000     0.114624   
C106     C      0.628540000000     0.738530000000     0.163300000000    -0.199073   
C107     C      0.428560000000     0.077900000000     0.225300000000     0.0314993  
C108     C      0.342370000000     0.066890000000     0.218810000000     0.000917263
C109     C      0.445860000000     0.613430000000     0.190470000000     0.0370712  
C110     C      0.359920000000     0.604480000000     0.185130000000     0.114304   
C111     C      0.319040000000     0.615200000000     0.163780000000    -0.198336   
C112     C      0.451590000000     0.614290000000     0.471600000000     0.0316771  
C113     C      0.369560000000     0.112950000000     0.974700000000     0.00177395 
C114     C      0.431390000000     0.575840000000     0.439060000000     0.0349887  
C115     C      0.349950000000     0.076890000000     0.939800000000     0.116546   
C116     C      0.293840000000     0.059010000000     0.924370000000    -0.206109   
C117     C      0.427740000000     0.888740000000     0.940890000000     0.0313972  
C118     C      0.342240000000     0.812710000000     0.445390000000     0.000814903
C119     C      0.444690000000     0.870190000000     0.975780000000     0.0367772  
C120     C      0.359440000000     0.792500000000     0.479280000000     0.114163   
C121     C      0.318590000000     0.740310000000     0.499580000000    -0.19795    
C122     C      0.360010000000     0.816410000000     0.228160000000     0.0317619  
C123     C      0.436020000000     0.901580000000     0.222200000000     0.00110502 
C124     C      0.377980000000     0.798980000000     0.193240000000     0.0363112  
C125     C      0.455800000000     0.883860000000     0.188270000000     0.114316   
C126     C      0.507780000000     0.924130000000     0.167130000000    -0.198746   
C127     C      0.222670000000     0.883440000000     0.888650000000     0.528578   
C128     C      0.225290000000     0.875360000000     0.772150000000     0.528637   
C129     C      0.370100000000     0.885450000000     0.775440000000     0.52769    
C130     C      0.363940000000     0.020500000000     0.889710000000     0.529377   
C131     C      0.359160000000     0.018600000000     0.772560000000     0.526072   
C132     C      0.359360000000     0.878410000000     0.892150000000     0.527169   
C133     C      0.432260000000     0.665920000000     0.639400000000     0.531917   
C134     C      0.439140000000     0.667650000000     0.523330000000     0.529419   
C135     C      0.576060000000     0.810400000000     0.522970000000     0.5306     
C136     C      0.443140000000     0.811870000000     0.641220000000     0.530457   
C137     C      0.431350000000     0.803380000000     0.525970000000     0.532006   
C138     C      0.578640000000     0.801450000000     0.638160000000     0.532054   
C139     C      0.164810000000     0.814790000000     0.436930000000     0.0323926  
C140     C      0.671100000000     0.898700000000     0.940370000000     0.00160233 
C141     C      0.129410000000     0.797600000000     0.471950000000     0.0353532  
C142     C      0.634280000000     0.881450000000     0.974700000000     0.113137   
C143     C      0.621900000000     0.921720000000     0.994710000000    -0.196773   
C144     C      0.167100000000     0.885520000000     0.723870000000     0.0317341  
C145     C      0.177350000000     0.810210000000     0.718220000000     0.00107858 
C146     C      0.631710000000     0.867350000000     0.688960000000     0.0367425  
C147     C      0.639780000000     0.790210000000     0.684330000000     0.114625   
C148     C      0.628540000000     0.738530000000     0.663300000000    -0.199076   
C149     C      0.428560000000     0.077900000000     0.725300000000     0.0314979  
C150     C      0.342370000000     0.066890000000     0.718810000000     0.000916295
C151     C      0.445860000000     0.613430000000     0.690470000000     0.0370814  
C152     C      0.359920000000     0.604480000000     0.685130000000     0.114308   
C153     C      0.319040000000     0.615200000000     0.663780000000    -0.198341   
C154     C      0.451590000000     0.614290000000     0.971600000000     0.0316839  
C155     C      0.369560000000     0.112950000000     0.474700000000     0.00176889 
C156     C      0.431390000000     0.575840000000     0.939060000000     0.0349936  
C157     C      0.349950000000     0.076890000000     0.439800000000     0.116537   
C158     C      0.293840000000     0.059010000000     0.424370000000    -0.2061     
C159     C      0.427740000000     0.888740000000     0.440890000000     0.0313911  
C160     C      0.342240000000     0.812710000000     0.945390000000     0.000827494
C161     C      0.444690000000     0.870190000000     0.475780000000     0.0367713  
C162     C      0.359440000000     0.792500000000     0.979280000000     0.114152   
C163     C      0.318590000000     0.740310000000     0.999580000000    -0.197855   
C164     C      0.360010000000     0.816410000000     0.728160000000     0.0317531  
C165     C      0.436020000000     0.901580000000     0.722200000000     0.00110189 
C166     C      0.377980000000     0.798980000000     0.693240000000     0.0363161  
C167     C      0.455800000000     0.883860000000     0.688270000000     0.11432    
C168     C      0.507780000000     0.924130000000     0.667130000000    -0.19875    
C169     C      0.722660000000     0.383430000000     0.388650000000     0.528563   
C170     C      0.725290000000     0.375360000000     0.272150000000     0.528561   
C171     C      0.870100000000     0.385450000000     0.275440000000     0.527901   
C172     C      0.863940000000     0.520500000000     0.389710000000     0.52932    
C173     C      0.859160000000     0.518600000000     0.272560000000     0.525998   
C174     C      0.859370000000     0.378410000000     0.392150000000     0.527209   
C175     C      0.932260000000     0.165920000000     0.139400000000     0.531308   
C176     C      0.939140000000     0.167650000000     0.023330000000     0.528694   
C177     C      0.076060000000     0.310410000000     0.022970000000     0.52942    
C178     C      0.943140000000     0.311870000000     0.141220000000     0.530252   
C179     C      0.931350000000     0.303380000000     0.025970000000     0.531494   
C180     C      0.078640000000     0.301450000000     0.138160000000     0.531005   
C181     C      0.664810000000     0.314780000000     0.936930000000     0.0324598  
C182     C      0.171100000000     0.398700000000     0.440370000000     0.00157198 
C183     C      0.629410000000     0.297600000000     0.971950000000     0.0357303  
C184     C      0.134280000000     0.381450000000     0.474700000000     0.112741   
C185     C      0.121900000000     0.421720000000     0.494710000000    -0.196576   
C186     C      0.667090000000     0.385510000000     0.223870000000     0.0319054  
C187     C      0.677350000000     0.310210000000     0.218220000000     0.0010808  
C188     C      0.131710000000     0.367350000000     0.188960000000     0.0364361  
C189     C      0.139780000000     0.290210000000     0.184330000000     0.114288   
C190     C      0.128540000000     0.238530000000     0.163300000000    -0.198806   
C191     C      0.928560000000     0.577900000000     0.225300000000     0.0318026  
C192     C      0.842370000000     0.566890000000     0.218810000000     0.000927448
C193     C      0.945860000000     0.113430000000     0.190470000000     0.0372672  
C194     C      0.859920000000     0.104470000000     0.185130000000     0.114401   
C195     C      0.819040000000     0.115200000000     0.163780000000    -0.198377   
C196     C      0.951590000000     0.114290000000     0.471600000000     0.0318595  
C197     C      0.869560000000     0.612950000000     0.974700000000     0.00182808 
C198     C      0.931390000000     0.075840000000     0.439060000000     0.0352277  
C199     C      0.849950000000     0.576890000000     0.939800000000     0.116648   
C200     C      0.793840000000     0.559010000000     0.924370000000    -0.206171   
C201     C      0.927740000000     0.388740000000     0.940890000000     0.0316379  
C202     C      0.842240000000     0.312710000000     0.445390000000     0.000926168
C203     C      0.944690000000     0.370200000000     0.975780000000     0.036935   
C204     C      0.859440000000     0.292500000000     0.479280000000     0.114267   
C205     C      0.818590000000     0.240310000000     0.499580000000    -0.19802    
C206     C      0.860010000000     0.316410000000     0.228160000000     0.0317879  
C207     C      0.936020000000     0.401580000000     0.222200000000     0.000431933
C208     C      0.877980000000     0.298980000000     0.193240000000     0.036522   
C209     C      0.955800000000     0.383860000000     0.188270000000     0.117429   
C210     C      0.007780000000     0.424130000000     0.167130000000    -0.202207   
C211     C      0.722660000000     0.383430000000     0.888650000000     0.52857    
C212     C      0.725290000000     0.375360000000     0.772150000000     0.528647   
C213     C      0.870100000000     0.385450000000     0.775440000000     0.52778    
C214     C      0.863940000000     0.520500000000     0.889710000000     0.529322   
C215     C      0.859160000000     0.518600000000     0.772560000000     0.525997   
C216     C      0.859370000000     0.378410000000     0.892150000000     0.527218   
C217     C      0.932260000000     0.165920000000     0.639400000000     0.531426   
C218     C      0.939140000000     0.167650000000     0.523330000000     0.528746   
C219     C      0.076060000000     0.310410000000     0.522970000000     0.529596   
C220     C      0.943140000000     0.311870000000     0.641220000000     0.530255   
C221     C      0.931350000000     0.303380000000     0.525970000000     0.531556   
C222     C      0.078640000000     0.301450000000     0.638160000000     0.530995   
C223     C      0.664810000000     0.314780000000     0.436930000000     0.0324511  
C224     C      0.171100000000     0.398700000000     0.940370000000     0.00158507 
C225     C      0.629410000000     0.297600000000     0.471950000000     0.035733   
C226     C      0.134280000000     0.381450000000     0.974700000000     0.112728   
C227     C      0.121900000000     0.421720000000     0.994710000000    -0.196479   
C228     C      0.667090000000     0.385510000000     0.723870000000     0.0319141  
C229     C      0.677350000000     0.310210000000     0.718220000000     0.00107997 
C230     C      0.131710000000     0.367350000000     0.688960000000     0.0364327  
C231     C      0.139780000000     0.290210000000     0.684330000000     0.114289   
C232     C      0.128540000000     0.238530000000     0.663300000000    -0.198809   
C233     C      0.928560000000     0.577900000000     0.725300000000     0.0318013  
C234     C      0.842370000000     0.566890000000     0.718810000000     0.000926488
C235     C      0.945860000000     0.113430000000     0.690470000000     0.0372773  
C236     C      0.859920000000     0.104470000000     0.685130000000     0.114406   
C237     C      0.819040000000     0.115200000000     0.663780000000    -0.198382   
C238     C      0.951590000000     0.114290000000     0.971600000000     0.0318663  
C239     C      0.869560000000     0.612950000000     0.474700000000     0.00182305 
C240     C      0.931390000000     0.075840000000     0.939060000000     0.0352326  
C241     C      0.849950000000     0.576890000000     0.439800000000     0.116639   
C242     C      0.793840000000     0.559010000000     0.424370000000    -0.206162   
C243     C      0.927740000000     0.388740000000     0.440890000000     0.0316318  
C244     C      0.842240000000     0.312710000000     0.945390000000     0.000938719
C245     C      0.944690000000     0.370200000000     0.475780000000     0.0369291  
C246     C      0.859440000000     0.292500000000     0.979280000000     0.114256   
C247     C      0.818590000000     0.240310000000     0.999580000000    -0.197925   
C248     C      0.860010000000     0.316410000000     0.728160000000     0.0317791  
C249     C      0.936020000000     0.401580000000     0.722200000000     0.000428817
C250     C      0.877980000000     0.298980000000     0.693240000000     0.0365269  
C251     C      0.955800000000     0.383860000000     0.688270000000     0.117433   
C252     C      0.007780000000     0.424130000000     0.667130000000    -0.202211   
C253     C      0.722670000000     0.883440000000     0.388650000000     0.528641   
C254     C      0.725290000000     0.875360000000     0.272150000000     0.528619   
C255     C      0.870100000000     0.885450000000     0.275440000000     0.527868   
C256     C      0.863940000000     0.020500000000     0.389710000000     0.529446   
C257     C      0.859160000000     0.018600000000     0.272560000000     0.526118   
C258     C      0.859360000000     0.878410000000     0.392150000000     0.5272     
C259     C      0.932260000000     0.665920000000     0.139400000000     0.531312   
C260     C      0.939140000000     0.667650000000     0.023330000000     0.528699   
C261     C      0.076060000000     0.810400000000     0.022970000000     0.529751   
C262     C      0.943140000000     0.811870000000     0.141220000000     0.530053   
C263     C      0.931350000000     0.803380000000     0.025970000000     0.531418   
C264     C      0.078640000000     0.801450000000     0.138160000000     0.531189   
C265     C      0.664810000000     0.814790000000     0.936930000000     0.0325641  
C266     C      0.171100000000     0.898700000000     0.440370000000     0.00152482 
C267     C      0.629410000000     0.797600000000     0.971950000000     0.0356111  
C268     C      0.134280000000     0.881450000000     0.474700000000     0.112815   
C269     C      0.121900000000     0.921720000000     0.494710000000    -0.196598   
C270     C      0.667100000000     0.885520000000     0.223870000000     0.0318462  
C271     C      0.677350000000     0.810210000000     0.218220000000     0.0011346  
C272     C      0.131710000000     0.867350000000     0.188960000000     0.0364778  
C273     C      0.139780000000     0.790210000000     0.184330000000     0.114283   
C274     C      0.128540000000     0.738530000000     0.163300000000    -0.198801   
C275     C      0.928560000000     0.077900000000     0.225300000000     0.0317316  
C276     C      0.842370000000     0.066890000000     0.218810000000     0.000985018
C277     C      0.945860000000     0.613430000000     0.190470000000     0.0372142  
C278     C      0.859920000000     0.604480000000     0.185130000000     0.114421   
C279     C      0.819040000000     0.615200000000     0.163780000000    -0.198405   
C280     C      0.951590000000     0.614290000000     0.471600000000     0.0318559  
C281     C      0.869560000000     0.112950000000     0.974700000000     0.00182829 
C282     C      0.931390000000     0.575840000000     0.439060000000     0.0352062  
C283     C      0.849950000000     0.076890000000     0.939800000000     0.116669   
C284     C      0.793840000000     0.059010000000     0.924370000000    -0.206192   
C285     C      0.927740000000     0.888740000000     0.940890000000     0.031633   
C286     C      0.842240000000     0.812710000000     0.445390000000     0.000874709
C287     C      0.944690000000     0.870190000000     0.975780000000     0.0369631  
C288     C      0.859440000000     0.792500000000     0.479280000000     0.11429    
C289     C      0.818590000000     0.740310000000     0.499580000000    -0.198101   
C290     C      0.860010000000     0.816410000000     0.228160000000     0.0317622  
C291     C      0.936030000000     0.901580000000     0.222200000000     0.000400717
C292     C      0.877980000000     0.798980000000     0.193240000000     0.0365255  
C293     C      0.955800000000     0.883860000000     0.188270000000     0.117412   
C294     C      0.007780000000     0.924130000000     0.167130000000    -0.202191   
C295     C      0.722670000000     0.883440000000     0.888650000000     0.528648   
C296     C      0.725290000000     0.875360000000     0.772150000000     0.528705   
C297     C      0.870100000000     0.885450000000     0.775440000000     0.527747   
C298     C      0.863940000000     0.020500000000     0.889710000000     0.529448   
C299     C      0.859160000000     0.018600000000     0.772560000000     0.526117   
C300     C      0.859360000000     0.878410000000     0.892150000000     0.527209   
C301     C      0.932260000000     0.665920000000     0.639400000000     0.53143    
C302     C      0.939140000000     0.667650000000     0.523330000000     0.528751   
C303     C      0.076060000000     0.810400000000     0.522970000000     0.529926   
C304     C      0.943140000000     0.811870000000     0.641220000000     0.530056   
C305     C      0.931350000000     0.803380000000     0.525970000000     0.531481   
C306     C      0.078640000000     0.801450000000     0.638160000000     0.531179   
C307     C      0.664810000000     0.814790000000     0.436930000000     0.0325555  
C308     C      0.171100000000     0.898700000000     0.940370000000     0.00153792 
C309     C      0.629410000000     0.797600000000     0.471950000000     0.0356138  
C310     C      0.134280000000     0.881450000000     0.974700000000     0.112802   
C311     C      0.121900000000     0.921720000000     0.994710000000    -0.196501   
C312     C      0.667100000000     0.885520000000     0.723870000000     0.0318549  
C313     C      0.677350000000     0.810210000000     0.718220000000     0.00113378 
C314     C      0.131710000000     0.867350000000     0.688960000000     0.0364744  
C315     C      0.139780000000     0.790210000000     0.684330000000     0.114284   
C316     C      0.128540000000     0.738530000000     0.663300000000    -0.198804   
C317     C      0.928560000000     0.077900000000     0.725300000000     0.0317303  
C318     C      0.842370000000     0.066890000000     0.718810000000     0.000984054
C319     C      0.945860000000     0.613430000000     0.690470000000     0.0372243  
C320     C      0.859920000000     0.604480000000     0.685130000000     0.114426   
C321     C      0.819040000000     0.615200000000     0.663780000000    -0.19841    
C322     C      0.951590000000     0.614290000000     0.971600000000     0.0318626  
C323     C      0.869560000000     0.112950000000     0.474700000000     0.00182326 
C324     C      0.931390000000     0.575840000000     0.939060000000     0.0352111  
C325     C      0.849950000000     0.076890000000     0.439800000000     0.11666    
C326     C      0.793840000000     0.059010000000     0.424370000000    -0.206183   
C327     C      0.927740000000     0.888740000000     0.440890000000     0.0316269  
C328     C      0.842240000000     0.812710000000     0.945390000000     0.000887264
C329     C      0.944690000000     0.870190000000     0.475780000000     0.0369572  
C330     C      0.859440000000     0.792500000000     0.979280000000     0.114279   
C331     C      0.818590000000     0.740310000000     0.999580000000    -0.198007   
C332     C      0.860010000000     0.816410000000     0.728160000000     0.0317534  
C333     C      0.936030000000     0.901580000000     0.722200000000     0.0003976  
C334     C      0.877980000000     0.798980000000     0.693240000000     0.0365304  
C335     C      0.955800000000     0.883860000000     0.688270000000     0.117416   
C336     C      0.007780000000     0.924130000000     0.667130000000    -0.202194   
Fe1      Fe     0.284480000000     0.360490000000     0.331920000000     1.35789    
Fe2      Fe     0.383830000000     0.461420000000     0.333050000000     1.35185    
Fe3      Fe     0.282550000000     0.459050000000     0.330390000000     1.35951    
Fe4      Fe     0.516410000000     0.226120000000     0.081080000000     1.3538     
Fe5      Fe     0.517270000000     0.326210000000     0.081970000000     1.35303    
Fe6      Fe     0.416740000000     0.227300000000     0.082930000000     1.35496    
Fe7      Fe     0.284480000000     0.360490000000     0.831920000000     1.35794    
Fe8      Fe     0.383830000000     0.461420000000     0.833050000000     1.35185    
Fe9      Fe     0.282550000000     0.459050000000     0.830390000000     1.35951    
Fe10     Fe     0.516410000000     0.226120000000     0.581080000000     1.35371    
Fe11     Fe     0.517270000000     0.326210000000     0.581970000000     1.35304    
Fe12     Fe     0.416740000000     0.227300000000     0.582930000000     1.35497    
Fe13     Fe     0.284490000000     0.860490000000     0.331920000000     1.35787    
Fe14     Fe     0.383830000000     0.961420000000     0.333050000000     1.35176    
Fe15     Fe     0.282550000000     0.959050000000     0.330390000000     1.35947    
Fe16     Fe     0.516410000000     0.726120000000     0.081080000000     1.35383    
Fe17     Fe     0.517270000000     0.826210000000     0.081970000000     1.35299    
Fe18     Fe     0.416740000000     0.727300000000     0.082930000000     1.35495    
Fe19     Fe     0.284490000000     0.860490000000     0.831920000000     1.35793    
Fe20     Fe     0.383830000000     0.961420000000     0.833050000000     1.35176    
Fe21     Fe     0.282550000000     0.959050000000     0.830390000000     1.35948    
Fe22     Fe     0.516410000000     0.726120000000     0.581080000000     1.35374    
Fe23     Fe     0.517270000000     0.826210000000     0.581970000000     1.353      
Fe24     Fe     0.416740000000     0.727300000000     0.582930000000     1.35496    
Fe25     Fe     0.784480000000     0.360490000000     0.331920000000     1.35812    
Fe26     Fe     0.883830000000     0.461420000000     0.333050000000     1.35225    
Fe27     Fe     0.782560000000     0.459050000000     0.330390000000     1.35976    
Fe28     Fe     0.016410000000     0.226120000000     0.081080000000     1.3466     
Fe29     Fe     0.017270000000     0.326210000000     0.081970000000     1.34592    
Fe30     Fe     0.916740000000     0.227300000000     0.082930000000     1.35408    
Fe31     Fe     0.784480000000     0.360490000000     0.831920000000     1.35818    
Fe32     Fe     0.883830000000     0.461420000000     0.833050000000     1.35225    
Fe33     Fe     0.782560000000     0.459050000000     0.830390000000     1.35977    
Fe34     Fe     0.016410000000     0.226120000000     0.581080000000     1.34651    
Fe35     Fe     0.017270000000     0.326210000000     0.581970000000     1.34593    
Fe36     Fe     0.916740000000     0.227300000000     0.582930000000     1.35409    
Fe37     Fe     0.784490000000     0.860490000000     0.331920000000     1.35799    
Fe38     Fe     0.883830000000     0.961420000000     0.333050000000     1.35203    
Fe39     Fe     0.782550000000     0.959050000000     0.330390000000     1.35957    
Fe40     Fe     0.016410000000     0.726120000000     0.081080000000     1.34673    
Fe41     Fe     0.017270000000     0.826210000000     0.081970000000     1.34601    
Fe42     Fe     0.916740000000     0.727300000000     0.082930000000     1.35409    
Fe43     Fe     0.784490000000     0.860490000000     0.831920000000     1.35804    
Fe44     Fe     0.883830000000     0.961420000000     0.833050000000     1.35203    
Fe45     Fe     0.782550000000     0.959050000000     0.830390000000     1.35957    
Fe46     Fe     0.016410000000     0.726120000000     0.581080000000     1.34663    
Fe47     Fe     0.017270000000     0.826210000000     0.581970000000     1.34602    
Fe48     Fe     0.916740000000     0.727300000000     0.582930000000     1.3541     
H1       H      0.113750000000     0.257080000000     0.983130000000     0.0309748  
H2       H      0.176060000000     0.287440000000     0.923150000000     0.0318759  
H3       H      0.686640000000     0.438730000000     0.428200000000     0.0336579  
H4       H      0.625000000000     0.421480000000     0.530660000000     0.068634   
H5       H      0.650490000000     0.462860000000     0.483970000000     0.0613576  
H6       H      0.581310000000     0.412790000000     0.484950000000     0.0795472  
H7       H      0.614680000000     0.391390000000     0.178590000000     0.0279425  
H8       H      0.176800000000     0.423260000000     0.238450000000     0.0313167  
H9       H      0.195310000000     0.287150000000     0.229010000000     0.0395805  
H10      H      0.630050000000     0.242330000000     0.127360000000     0.0704471  
H11      H      0.658650000000     0.227210000000     0.172560000000     0.0640491  
H12      H      0.588790000000     0.205980000000     0.173700000000     0.0794109  
H13      H      0.487220000000     0.130910000000     0.180410000000     0.0286098  
H14      H      0.456810000000     0.568470000000     0.240180000000     0.0321355  
H15      H      0.301030000000     0.548640000000     0.229170000000     0.0391659  
H16      H      0.321860000000     0.114060000000     0.127860000000     0.0692274  
H17      H      0.277550000000     0.084790000000     0.172630000000     0.0632421  
H18      H      0.325390000000     0.154460000000     0.174320000000     0.0777701  
H19      H      0.457590000000     0.062410000000     0.426290000000     0.0296641  
H20      H      0.491950000000     0.128190000000     0.482960000000     0.0301963  
H21      H      0.344380000000     0.627030000000     0.988600000000     0.0365722  
H22      H      0.269790000000     0.515220000000     0.925340000000     0.0872892  
H23      H      0.273140000000     0.574180000000     0.945370000000     0.0630788  
H24      H      0.294740000000     0.573860000000     0.890990000000     0.0798077  
H25      H      0.485660000000     0.394400000000     0.986610000000     0.0277946  
H26      H      0.455870000000     0.426830000000     0.926760000000     0.0325088  
H27      H      0.301280000000     0.289360000000     0.434200000000     0.0399109  
H28      H      0.320120000000     0.243500000000     0.535560000000     0.0692811  
H29      H      0.277180000000     0.228820000000     0.489870000000     0.063109   
H30      H      0.326090000000     0.208120000000     0.489020000000     0.0782496  
H31      H      0.353560000000     0.257970000000     0.182990000000     0.0284811  
H32      H      0.322030000000     0.288570000000     0.242830000000     0.0320449  
H33      H      0.459470000000     0.442560000000     0.232830000000     0.0399838  
H34      H      0.503490000000     0.422580000000     0.131230000000     0.0701838  
H35      H      0.520070000000     0.465420000000     0.177080000000     0.0640325  
H36      H      0.540150000000     0.416250000000     0.176740000000     0.0790857  
H37      H      0.113750000000     0.257080000000     0.483130000000     0.0309609  
H38      H      0.176060000000     0.287440000000     0.423150000000     0.031874   
H39      H      0.686640000000     0.438730000000     0.928200000000     0.0336567  
H40      H      0.625000000000     0.421480000000     0.030660000000     0.0685743  
H41      H      0.650490000000     0.462860000000     0.983970000000     0.0613502  
H42      H      0.581310000000     0.412790000000     0.984950000000     0.0795422  
H43      H      0.614680000000     0.391390000000     0.678590000000     0.0279452  
H44      H      0.176800000000     0.423260000000     0.738450000000     0.0313175  
H45      H      0.195310000000     0.287150000000     0.729010000000     0.039583   
H46      H      0.630050000000     0.242330000000     0.627360000000     0.0704531  
H47      H      0.658650000000     0.227210000000     0.672560000000     0.0640532  
H48      H      0.588790000000     0.205980000000     0.673700000000     0.0794152  
H49      H      0.487220000000     0.130910000000     0.680410000000     0.0286157  
H50      H      0.456810000000     0.568470000000     0.740190000000     0.0321409  
H51      H      0.301030000000     0.548640000000     0.729170000000     0.0391666  
H52      H      0.321860000000     0.114060000000     0.627860000000     0.0692335  
H53      H      0.277550000000     0.084790000000     0.672630000000     0.0632464  
H54      H      0.325390000000     0.154460000000     0.674320000000     0.0777727  
H55      H      0.457590000000     0.062410000000     0.926290000000     0.0296672  
H56      H      0.491950000000     0.128190000000     0.982960000000     0.0302136  
H57      H      0.344380000000     0.627030000000     0.488600000000     0.036554   
H58      H      0.269790000000     0.515220000000     0.425350000000     0.0872799  
H59      H      0.273140000000     0.574180000000     0.445370000000     0.0630678  
H60      H      0.294740000000     0.573860000000     0.390990000000     0.0798079  
H61      H      0.485660000000     0.394400000000     0.486610000000     0.027777   
H62      H      0.455870000000     0.426830000000     0.426760000000     0.0325059  
H63      H      0.301280000000     0.289360000000     0.934200000000     0.0399117  
H64      H      0.320120000000     0.243500000000     0.035560000000     0.0692201  
H65      H      0.277180000000     0.228820000000     0.989870000000     0.0631025  
H66      H      0.326090000000     0.208120000000     0.989020000000     0.0782453  
H67      H      0.353560000000     0.257970000000     0.682990000000     0.0284817  
H68      H      0.322030000000     0.288570000000     0.742830000000     0.0320423  
H69      H      0.459470000000     0.442560000000     0.732830000000     0.0399868  
H70      H      0.503490000000     0.422580000000     0.631230000000     0.0701916  
H71      H      0.520070000000     0.465420000000     0.677080000000     0.0640368  
H72      H      0.540150000000     0.416250000000     0.676740000000     0.0790881  
H73      H      0.113750000000     0.757080000000     0.983130000000     0.0309833  
H74      H      0.176060000000     0.787440000000     0.923150000000     0.0318441  
H75      H      0.686640000000     0.938730000000     0.428200000000     0.0336392  
H76      H      0.625000000000     0.921480000000     0.530660000000     0.0686239  
H77      H      0.650490000000     0.962860000000     0.483970000000     0.0613304  
H78      H      0.581310000000     0.912790000000     0.484950000000     0.0795417  
H79      H      0.614680000000     0.891390000000     0.178590000000     0.0279176  
H80      H      0.176800000000     0.923260000000     0.238450000000     0.0313232  
H81      H      0.195310000000     0.787140000000     0.229010000000     0.0395619  
H82      H      0.630050000000     0.742330000000     0.127360000000     0.0704388  
H83      H      0.658650000000     0.727210000000     0.172560000000     0.0640374  
H84      H      0.588790000000     0.705980000000     0.173700000000     0.0794015  
H85      H      0.487230000000     0.630910000000     0.180410000000     0.0285966  
H86      H      0.456800000000     0.068470000000     0.240180000000     0.0321598  
H87      H      0.301030000000     0.048640000000     0.229170000000     0.0392008  
H88      H      0.321860000000     0.614060000000     0.127860000000     0.0692174  
H89      H      0.277550000000     0.584790000000     0.172630000000     0.0632215  
H90      H      0.325390000000     0.654460000000     0.174320000000     0.077766   
H91      H      0.457590000000     0.562410000000     0.426290000000     0.0296365  
H92      H      0.491950000000     0.628190000000     0.482960000000     0.0301849  
H93      H      0.344380000000     0.127030000000     0.988600000000     0.0365806  
H94      H      0.269790000000     0.015220000000     0.925340000000     0.0873434  
H95      H      0.273140000000     0.074180000000     0.945370000000     0.0631072  
H96      H      0.294740000000     0.073860000000     0.890990000000     0.0798309  
H97      H      0.485660000000     0.894400000000     0.986610000000     0.0277697  
H98      H      0.455870000000     0.926830000000     0.926760000000     0.0324943  
H99      H      0.301280000000     0.789360000000     0.434200000000     0.0399137  
H100     H      0.320120000000     0.743500000000     0.535560000000     0.0692694  
H101     H      0.277180000000     0.728820000000     0.489870000000     0.0630998  
H102     H      0.326090000000     0.708120000000     0.489020000000     0.0782429  
H103     H      0.353560000000     0.757970000000     0.182990000000     0.0284748  
H104     H      0.322030000000     0.788570000000     0.242830000000     0.0320446  
H105     H      0.459470000000     0.942560000000     0.232830000000     0.0399567  
H106     H      0.503490000000     0.922580000000     0.131230000000     0.0701636  
H107     H      0.520070000000     0.965420000000     0.177080000000     0.0640029  
H108     H      0.540150000000     0.916250000000     0.176740000000     0.0790695  
H109     H      0.113750000000     0.757080000000     0.483130000000     0.0309693  
H110     H      0.176060000000     0.787440000000     0.423150000000     0.0318422  
H111     H      0.686640000000     0.938730000000     0.928200000000     0.033638   
H112     H      0.625000000000     0.921480000000     0.030660000000     0.0685642  
H113     H      0.650490000000     0.962860000000     0.983970000000     0.061323   
H114     H      0.581310000000     0.912790000000     0.984950000000     0.0795366  
H115     H      0.614680000000     0.891390000000     0.678590000000     0.0279203  
H116     H      0.176800000000     0.923260000000     0.738450000000     0.031324   
H117     H      0.195310000000     0.787140000000     0.729010000000     0.0395643  
H118     H      0.630050000000     0.742330000000     0.627360000000     0.0704449  
H119     H      0.658650000000     0.727210000000     0.672560000000     0.0640415  
H120     H      0.588790000000     0.705980000000     0.673700000000     0.0794058  
H121     H      0.487230000000     0.630910000000     0.680410000000     0.0286025  
H122     H      0.456800000000     0.068470000000     0.740190000000     0.0321652  
H123     H      0.301030000000     0.048640000000     0.729170000000     0.0392015  
H124     H      0.321860000000     0.614060000000     0.627860000000     0.0692235  
H125     H      0.277550000000     0.584790000000     0.672630000000     0.0632259  
H126     H      0.325390000000     0.654460000000     0.674320000000     0.0777687  
H127     H      0.457590000000     0.562410000000     0.926290000000     0.0296395  
H128     H      0.491950000000     0.628190000000     0.982960000000     0.0302022  
H129     H      0.344380000000     0.127030000000     0.488600000000     0.0365625  
H130     H      0.269790000000     0.015220000000     0.425350000000     0.087334   
H131     H      0.273140000000     0.074180000000     0.445370000000     0.0630962  
H132     H      0.294740000000     0.073860000000     0.390990000000     0.0798311  
H133     H      0.485660000000     0.894400000000     0.486610000000     0.0277521  
H134     H      0.455870000000     0.926830000000     0.426760000000     0.0324914  
H135     H      0.301280000000     0.789360000000     0.934200000000     0.0399145  
H136     H      0.320120000000     0.743500000000     0.035560000000     0.0692085  
H137     H      0.277180000000     0.728820000000     0.989870000000     0.0630933  
H138     H      0.326090000000     0.708120000000     0.989020000000     0.0782386  
H139     H      0.353560000000     0.757970000000     0.682990000000     0.0284754  
H140     H      0.322030000000     0.788570000000     0.742830000000     0.0320421  
H141     H      0.459470000000     0.942560000000     0.732830000000     0.0399596  
H142     H      0.503490000000     0.922580000000     0.631230000000     0.0701714  
H143     H      0.520070000000     0.965420000000     0.677080000000     0.0640072  
H144     H      0.540150000000     0.916250000000     0.676740000000     0.0790718  
H145     H      0.613750000000     0.257080000000     0.983130000000     0.0314094  
H146     H      0.676060000000     0.287440000000     0.923150000000     0.0320936  
H147     H      0.186640000000     0.438730000000     0.428200000000     0.0335096  
H148     H      0.125000000000     0.421480000000     0.530660000000     0.068493   
H149     H      0.150490000000     0.462860000000     0.483970000000     0.0610508  
H150     H      0.081310000000     0.412790000000     0.484950000000     0.0787309  
H151     H      0.114680000000     0.391390000000     0.178590000000     0.0276763  
H152     H      0.676800000000     0.423260000000     0.238450000000     0.0315066  
H153     H      0.695310000000     0.287150000000     0.229010000000     0.0397313  
H154     H      0.130050000000     0.242330000000     0.127360000000     0.0702763  
H155     H      0.158650000000     0.227210000000     0.172560000000     0.0637588  
H156     H      0.088790000000     0.205980000000     0.173700000000     0.0786424  
H157     H      0.987230000000     0.130910000000     0.180410000000     0.0294533  
H158     H      0.956810000000     0.568470000000     0.240180000000     0.0325785  
H159     H      0.801030000000     0.548640000000     0.229170000000     0.039251   
H160     H      0.821860000000     0.114060000000     0.127860000000     0.0692909  
H161     H      0.777550000000     0.084790000000     0.172630000000     0.0633633  
H162     H      0.825390000000     0.154460000000     0.174320000000     0.0778886  
H163     H      0.957590000000     0.062410000000     0.426290000000     0.0300781  
H164     H      0.991950000000     0.128190000000     0.482960000000     0.0309143  
H165     H      0.844380000000     0.627030000000     0.988600000000     0.0366372  
H166     H      0.769790000000     0.515220000000     0.925340000000     0.087358   
H167     H      0.773140000000     0.574180000000     0.945370000000     0.063227   
H168     H      0.794740000000     0.573860000000     0.890990000000     0.0799869  
H169     H      0.985660000000     0.394400000000     0.986610000000     0.0286529  
H170     H      0.955870000000     0.426830000000     0.926760000000     0.0329386  
H171     H      0.801280000000     0.289360000000     0.434200000000     0.0399872  
H172     H      0.820120000000     0.243500000000     0.535560000000     0.0693591  
H173     H      0.777180000000     0.228820000000     0.489870000000     0.0632641  
H174     H      0.826090000000     0.208120000000     0.489020000000     0.0783713  
H175     H      0.853560000000     0.257970000000     0.182990000000     0.0285318  
H176     H      0.822030000000     0.288570000000     0.242830000000     0.0321546  
H177     H      0.959470000000     0.442560000000     0.232830000000     0.0408991  
H178     H      0.003490000000     0.422580000000     0.131230000000     0.0697501  
H179     H      0.020070000000     0.465420000000     0.177080000000     0.0636955  
H180     H      0.040150000000     0.416250000000     0.176740000000     0.0790176  
H181     H      0.613750000000     0.257080000000     0.483130000000     0.0313955  
H182     H      0.676060000000     0.287440000000     0.423150000000     0.0320917  
H183     H      0.186640000000     0.438730000000     0.928200000000     0.0335084  
H184     H      0.125000000000     0.421480000000     0.030660000000     0.0684331  
H185     H      0.150490000000     0.462860000000     0.983970000000     0.0610434  
H186     H      0.081310000000     0.412790000000     0.984950000000     0.078726   
H187     H      0.114680000000     0.391390000000     0.678590000000     0.027679   
H188     H      0.676800000000     0.423260000000     0.738450000000     0.0315074  
H189     H      0.695310000000     0.287150000000     0.729010000000     0.0397337  
H190     H      0.130050000000     0.242330000000     0.627360000000     0.0702824  
H191     H      0.158650000000     0.227210000000     0.672560000000     0.0637629  
H192     H      0.088790000000     0.205980000000     0.673700000000     0.0786467  
H193     H      0.987230000000     0.130910000000     0.680410000000     0.0294591  
H194     H      0.956810000000     0.568470000000     0.740190000000     0.0325839  
H195     H      0.801030000000     0.548640000000     0.729170000000     0.0392517  
H196     H      0.821860000000     0.114060000000     0.627860000000     0.069297   
H197     H      0.777550000000     0.084790000000     0.672630000000     0.0633677  
H198     H      0.825390000000     0.154460000000     0.674320000000     0.0778912  
H199     H      0.957590000000     0.062410000000     0.926290000000     0.0300811  
H200     H      0.991950000000     0.128190000000     0.982960000000     0.0309315  
H201     H      0.844380000000     0.627030000000     0.488600000000     0.0366191  
H202     H      0.769790000000     0.515220000000     0.425350000000     0.0873486  
H203     H      0.773140000000     0.574180000000     0.445370000000     0.063216   
H204     H      0.794740000000     0.573860000000     0.390990000000     0.0799872  
H205     H      0.985660000000     0.394400000000     0.486610000000     0.0286355  
H206     H      0.955870000000     0.426830000000     0.426760000000     0.0329358  
H207     H      0.801280000000     0.289360000000     0.934200000000     0.0399879  
H208     H      0.820120000000     0.243500000000     0.035560000000     0.0692983  
H209     H      0.777180000000     0.228820000000     0.989870000000     0.0632576  
H210     H      0.826090000000     0.208120000000     0.989020000000     0.078367   
H211     H      0.853560000000     0.257970000000     0.682990000000     0.0285324  
H212     H      0.822030000000     0.288570000000     0.742830000000     0.0321521  
H213     H      0.959470000000     0.442560000000     0.732830000000     0.0409021  
H214     H      0.003490000000     0.422580000000     0.631230000000     0.0697579  
H215     H      0.020070000000     0.465420000000     0.677080000000     0.0636999  
H216     H      0.040150000000     0.416250000000     0.676740000000     0.07902    
H217     H      0.613750000000     0.757080000000     0.983130000000     0.0314305  
H218     H      0.676060000000     0.787440000000     0.923150000000     0.0320607  
H219     H      0.186640000000     0.938730000000     0.428200000000     0.0334974  
H220     H      0.125000000000     0.921480000000     0.530660000000     0.0684876  
H221     H      0.150490000000     0.962860000000     0.483970000000     0.0610283  
H222     H      0.081310000000     0.912790000000     0.484950000000     0.0787309  
H223     H      0.114680000000     0.891390000000     0.178590000000     0.0276508  
H224     H      0.676800000000     0.923260000000     0.238450000000     0.0314988  
H225     H      0.695310000000     0.787140000000     0.229010000000     0.0397066  
H226     H      0.130050000000     0.742330000000     0.127360000000     0.0702649  
H227     H      0.158650000000     0.727210000000     0.172560000000     0.0637457  
H228     H      0.088790000000     0.705980000000     0.173700000000     0.0786301  
H229     H      0.987220000000     0.630910000000     0.180410000000     0.0294581  
H230     H      0.956800000000     0.068470000000     0.240180000000     0.0326215  
H231     H      0.801030000000     0.048640000000     0.229170000000     0.0392673  
H232     H      0.821860000000     0.614060000000     0.127860000000     0.0692834  
H233     H      0.777550000000     0.584790000000     0.172630000000     0.0633491  
H234     H      0.825390000000     0.654460000000     0.174320000000     0.0778877  
H235     H      0.957590000000     0.562410000000     0.426290000000     0.0300483  
H236     H      0.991950000000     0.628190000000     0.482960000000     0.0309011  
H237     H      0.844380000000     0.127030000000     0.988600000000     0.0366457  
H238     H      0.769790000000     0.015220000000     0.925340000000     0.0874045  
H239     H      0.773140000000     0.074180000000     0.945370000000     0.0632517  
H240     H      0.794740000000     0.073860000000     0.890990000000     0.0800024  
H241     H      0.985660000000     0.894400000000     0.986610000000     0.0286266  
H242     H      0.955870000000     0.926830000000     0.926760000000     0.0329273  
H243     H      0.801280000000     0.789360000000     0.434200000000     0.0399987  
H244     H      0.820120000000     0.743500000000     0.535560000000     0.0693592  
H245     H      0.777190000000     0.728820000000     0.489870000000     0.0633017  
H246     H      0.826090000000     0.708120000000     0.489020000000     0.078377   
H247     H      0.853560000000     0.757970000000     0.182990000000     0.028529   
H248     H      0.822030000000     0.788570000000     0.242830000000     0.0321572  
H249     H      0.959470000000     0.942560000000     0.232830000000     0.0408848  
H250     H      0.003490000000     0.922580000000     0.131230000000     0.0697293  
H251     H      0.020070000000     0.965420000000     0.177080000000     0.0636715  
H252     H      0.040150000000     0.916250000000     0.176740000000     0.0790044  
H253     H      0.613750000000     0.757080000000     0.483130000000     0.0314166  
H254     H      0.676060000000     0.787440000000     0.423150000000     0.0320588  
H255     H      0.186640000000     0.938730000000     0.928200000000     0.0334962  
H256     H      0.125000000000     0.921480000000     0.030660000000     0.0684277  
H257     H      0.150490000000     0.962860000000     0.983970000000     0.0610209  
H258     H      0.081310000000     0.912790000000     0.984950000000     0.0787259  
H259     H      0.114680000000     0.891390000000     0.678590000000     0.0276535  
H260     H      0.676800000000     0.923260000000     0.738450000000     0.0314996  
H261     H      0.695310000000     0.787140000000     0.729010000000     0.0397091  
H262     H      0.130050000000     0.742330000000     0.627360000000     0.0702709  
H263     H      0.158650000000     0.727210000000     0.672560000000     0.0637498  
H264     H      0.088790000000     0.705980000000     0.673700000000     0.0786345  
H265     H      0.987220000000     0.630910000000     0.680410000000     0.0294639  
H266     H      0.956800000000     0.068470000000     0.740190000000     0.0326269  
H267     H      0.801030000000     0.048640000000     0.729170000000     0.039268   
H268     H      0.821860000000     0.614060000000     0.627860000000     0.0692895  
H269     H      0.777550000000     0.584790000000     0.672630000000     0.0633534  
H270     H      0.825390000000     0.654460000000     0.674320000000     0.0778903  
H271     H      0.957590000000     0.562410000000     0.926290000000     0.0300513  
H272     H      0.991950000000     0.628190000000     0.982960000000     0.0309183  
H273     H      0.844380000000     0.127030000000     0.488600000000     0.0366277  
H274     H      0.769790000000     0.015220000000     0.425350000000     0.0873952  
H275     H      0.773140000000     0.074180000000     0.445370000000     0.0632408  
H276     H      0.794740000000     0.073860000000     0.390990000000     0.0800027  
H277     H      0.985660000000     0.894400000000     0.486610000000     0.0286092  
H278     H      0.955870000000     0.926830000000     0.426760000000     0.0329244  
H279     H      0.801280000000     0.789360000000     0.934200000000     0.0399994  
H280     H      0.820120000000     0.743500000000     0.035560000000     0.0692984  
H281     H      0.777190000000     0.728820000000     0.989870000000     0.0632952  
H282     H      0.826090000000     0.708120000000     0.989020000000     0.0783727  
H283     H      0.853560000000     0.757970000000     0.682990000000     0.0285297  
H284     H      0.822030000000     0.788570000000     0.742830000000     0.0321547  
H285     H      0.959470000000     0.942560000000     0.732830000000     0.0408877  
H286     H      0.003490000000     0.922580000000     0.631230000000     0.0697371  
H287     H      0.020070000000     0.965420000000     0.677080000000     0.0636759  
H288     H      0.040150000000     0.916250000000     0.676740000000     0.0790067  
N1       N      0.186100000000     0.365510000000     0.421700000000    -0.193563   
N2       N      0.613090000000     0.330140000000     0.990160000000    -0.211799   
N3       N      0.189970000000     0.357040000000     0.238250000000    -0.192852   
N4       N      0.616600000000     0.319170000000     0.170190000000    -0.212771   
N5       N      0.376790000000     0.554460000000     0.239110000000    -0.192113   
N6       N      0.412370000000     0.128070000000     0.171390000000    -0.212503   
N7       N      0.420200000000     0.131760000000     0.989990000000    -0.193533   
N8       N      0.381120000000     0.557540000000     0.422550000000    -0.211357   
N9       N      0.376520000000     0.360070000000     0.425950000000    -0.192179   
N10      N      0.411470000000     0.321560000000     0.994000000000    -0.212521   
N11      N      0.388750000000     0.367780000000     0.242230000000    -0.192338   
N12      N      0.426230000000     0.331900000000     0.174040000000    -0.212027   
N13      N      0.186100000000     0.365510000000     0.921700000000    -0.193566   
N14      N      0.613090000000     0.330140000000     0.490160000000    -0.211858   
N15      N      0.189970000000     0.357040000000     0.738260000000    -0.192908   
N16      N      0.616600000000     0.319170000000     0.670190000000    -0.212769   
N17      N      0.376790000000     0.554460000000     0.739110000000    -0.192113   
N18      N      0.412370000000     0.128070000000     0.671390000000    -0.212522   
N19      N      0.420200000000     0.131760000000     0.489990000000    -0.193569   
N20      N      0.381120000000     0.557540000000     0.922550000000    -0.211357   
N21      N      0.376520000000     0.360070000000     0.925950000000    -0.19218    
N22      N      0.411470000000     0.321560000000     0.494000000000    -0.212562   
N23      N      0.388750000000     0.367780000000     0.742230000000    -0.192317   
N24      N      0.426230000000     0.331900000000     0.674040000000    -0.212027   
N25      N      0.186100000000     0.865510000000     0.421700000000    -0.193553   
N26      N      0.613090000000     0.830150000000     0.990160000000    -0.211794   
N27      N      0.189970000000     0.857040000000     0.238250000000    -0.192833   
N28      N      0.616600000000     0.819170000000     0.170190000000    -0.212807   
N29      N      0.376790000000     0.054460000000     0.239110000000    -0.192122   
N30      N      0.412370000000     0.628070000000     0.171390000000    -0.212508   
N31      N      0.420200000000     0.631760000000     0.989990000000    -0.193537   
N32      N      0.381120000000     0.057540000000     0.422550000000    -0.211372   
N33      N      0.376520000000     0.860080000000     0.425950000000    -0.192216   
N34      N      0.411470000000     0.821560000000     0.994000000000    -0.212566   
N35      N      0.388760000000     0.867780000000     0.242230000000    -0.19231    
N36      N      0.426230000000     0.831900000000     0.174040000000    -0.212026   
N37      N      0.186100000000     0.865510000000     0.921700000000    -0.193556   
N38      N      0.613090000000     0.830150000000     0.490160000000    -0.211853   
N39      N      0.189970000000     0.857040000000     0.738260000000    -0.192889   
N40      N      0.616600000000     0.819170000000     0.670190000000    -0.212805   
N41      N      0.376790000000     0.054460000000     0.739110000000    -0.192122   
N42      N      0.412370000000     0.628070000000     0.671390000000    -0.212527   
N43      N      0.420200000000     0.631760000000     0.489990000000    -0.193573   
N44      N      0.381120000000     0.057540000000     0.922550000000    -0.211373   
N45      N      0.376520000000     0.860080000000     0.925950000000    -0.192217   
N46      N      0.411470000000     0.821560000000     0.494000000000    -0.212607   
N47      N      0.388760000000     0.867780000000     0.742230000000    -0.192289   
N48      N      0.426230000000     0.831900000000     0.674040000000    -0.212027   
N49      N      0.686100000000     0.365510000000     0.421700000000    -0.193497   
N50      N      0.113090000000     0.330140000000     0.990160000000    -0.211709   
N51      N      0.689960000000     0.357040000000     0.238250000000    -0.192735   
N52      N      0.116600000000     0.319170000000     0.170190000000    -0.212687   
N53      N      0.876800000000     0.554460000000     0.239110000000    -0.192087   
N54      N      0.912370000000     0.128070000000     0.171390000000    -0.212297   
N55      N      0.920200000000     0.131760000000     0.989990000000    -0.193287   
N56      N      0.881120000000     0.557540000000     0.422550000000    -0.211339   
N57      N      0.876520000000     0.360070000000     0.425950000000    -0.192198   
N58      N      0.911470000000     0.321560000000     0.994000000000    -0.212338   
N59      N      0.888750000000     0.367780000000     0.242230000000    -0.19213    
N60      N      0.926230000000     0.331900000000     0.174040000000    -0.212213   
N61      N      0.686100000000     0.365510000000     0.921700000000    -0.1935     
N62      N      0.113090000000     0.330140000000     0.490160000000    -0.211768   
N63      N      0.689960000000     0.357040000000     0.738260000000    -0.192791   
N64      N      0.116600000000     0.319170000000     0.670190000000    -0.212685   
N65      N      0.876800000000     0.554460000000     0.739110000000    -0.192087   
N66      N      0.912370000000     0.128070000000     0.671390000000    -0.212316   
N67      N      0.920200000000     0.131760000000     0.489990000000    -0.193322   
N68      N      0.881120000000     0.557540000000     0.922550000000    -0.21134    
N69      N      0.876520000000     0.360070000000     0.925950000000    -0.1922     
N70      N      0.911470000000     0.321560000000     0.494000000000    -0.212378   
N71      N      0.888750000000     0.367780000000     0.742230000000    -0.19211    
N72      N      0.926230000000     0.331900000000     0.674040000000    -0.212213   
N73      N      0.686100000000     0.865510000000     0.421700000000    -0.193497   
N74      N      0.113090000000     0.830150000000     0.990160000000    -0.211771   
N75      N      0.689970000000     0.857040000000     0.238250000000    -0.192772   
N76      N      0.116600000000     0.819170000000     0.170190000000    -0.212729   
N77      N      0.876790000000     0.054460000000     0.239110000000    -0.192087   
N78      N      0.912370000000     0.628070000000     0.171390000000    -0.212297   
N79      N      0.920200000000     0.631760000000     0.989990000000    -0.193292   
N80      N      0.881120000000     0.057540000000     0.422550000000    -0.211353   
N81      N      0.876520000000     0.860080000000     0.425950000000    -0.192179   
N82      N      0.911470000000     0.821560000000     0.994000000000    -0.212351   
N83      N      0.888760000000     0.867780000000     0.242230000000    -0.192087   
N84      N      0.926230000000     0.831900000000     0.174040000000    -0.212181   
N85      N      0.686100000000     0.865510000000     0.921700000000    -0.1935     
N86      N      0.113090000000     0.830150000000     0.490160000000    -0.211829   
N87      N      0.689970000000     0.857040000000     0.738260000000    -0.192827   
N88      N      0.116600000000     0.819170000000     0.670190000000    -0.212727   
N89      N      0.876790000000     0.054460000000     0.739110000000    -0.192087   
N90      N      0.912370000000     0.628070000000     0.671390000000    -0.212316   
N91      N      0.920200000000     0.631760000000     0.489990000000    -0.193328   
N92      N      0.881120000000     0.057540000000     0.922550000000    -0.211354   
N93      N      0.876520000000     0.860080000000     0.925950000000    -0.19218    
N94      N      0.911470000000     0.821560000000     0.494000000000    -0.212391   
N95      N      0.888760000000     0.867780000000     0.742230000000    -0.192066   
N96      N      0.926230000000     0.831900000000     0.674040000000    -0.212181   
O1       O      0.226140000000     0.409320000000     0.298230000000    -0.501797   
O2       O      0.384590000000     0.491720000000     0.384650000000    -0.503555   
O3       O      0.255670000000     0.356910000000     0.279090000000    -0.506441   
O4       O      0.225990000000     0.351240000000     0.362990000000    -0.497986   
O5       O      0.310040000000     0.488180000000     0.278320000000    -0.508155   
O6       O      0.392410000000     0.413780000000     0.366710000000    -0.49664    
O7       O      0.317030000000     0.426970000000     0.331770000000    -0.867581   
O8       O      0.389020000000     0.434320000000     0.281650000000    -0.505263   
O9       O      0.334800000000     0.352950000000     0.301160000000    -0.499795   
O10      O      0.252100000000     0.432370000000     0.382310000000    -0.513457   
O11      O      0.310360000000     0.358290000000     0.384660000000    -0.507907   
O12      O      0.391670000000     0.517440000000     0.299470000000    -0.495013   
O13      O      0.330220000000     0.517280000000     0.362070000000    -0.504663   
O14      O      0.407290000000     0.170490000000     0.049910000000    -0.502814   
O15      O      0.491930000000     0.329540000000     0.134680000000    -0.510248   
O16      O      0.488460000000     0.196440000000     0.029200000000    -0.50742    
O17      O      0.467720000000     0.169010000000     0.113540000000    -0.498737   
O18      O      0.413090000000     0.254610000000     0.031350000000    -0.512239   
O19      O      0.575310000000     0.334020000000     0.112900000000    -0.502066   
O20      O      0.483410000000     0.259810000000     0.082020000000    -0.865352   
O21      O      0.545260000000     0.328360000000     0.029290000000    -0.511385   
O22      O      0.573390000000     0.274810000000     0.048270000000    -0.499106   
O23      O      0.414560000000     0.197080000000     0.134520000000    -0.511499   
O24      O      0.547270000000     0.252770000000     0.132840000000    -0.51095    
O25      O      0.467920000000     0.335520000000     0.051080000000    -0.502057   
O26      O      0.409670000000     0.276220000000     0.116160000000    -0.501158   
O27      O      0.226140000000     0.409320000000     0.798230000000    -0.50182    
O28      O      0.384590000000     0.491720000000     0.884650000000    -0.503553   
O29      O      0.255670000000     0.356910000000     0.779090000000    -0.506478   
O30      O      0.225990000000     0.351240000000     0.862990000000    -0.497994   
O31      O      0.310040000000     0.488180000000     0.778320000000    -0.508156   
O32      O      0.392410000000     0.413780000000     0.866710000000    -0.496631   
O33      O      0.317030000000     0.426970000000     0.831770000000    -0.86759    
O34      O      0.389020000000     0.434320000000     0.781650000000    -0.505224   
O35      O      0.334800000000     0.352950000000     0.801170000000    -0.49976    
O36      O      0.252100000000     0.432370000000     0.882310000000    -0.51346    
O37      O      0.310360000000     0.358290000000     0.884660000000    -0.507907   
O38      O      0.391670000000     0.517440000000     0.799470000000    -0.495016   
O39      O      0.330220000000     0.517280000000     0.862070000000    -0.504667   
O40      O      0.407290000000     0.170490000000     0.549910000000    -0.502819   
O41      O      0.491930000000     0.329540000000     0.634680000000    -0.510249   
O42      O      0.488460000000     0.196440000000     0.529200000000    -0.507397   
O43      O      0.467720000000     0.169010000000     0.613550000000    -0.498758   
O44      O      0.413090000000     0.254610000000     0.531350000000    -0.512234   
O45      O      0.575310000000     0.334020000000     0.612900000000    -0.502072   
O46      O      0.483410000000     0.259810000000     0.582020000000    -0.865346   
O47      O      0.545260000000     0.328360000000     0.529290000000    -0.511416   
O48      O      0.573390000000     0.274810000000     0.548260000000    -0.499124   
O49      O      0.414560000000     0.197080000000     0.634520000000    -0.511538   
O50      O      0.547270000000     0.252770000000     0.632840000000    -0.510935   
O51      O      0.467920000000     0.335520000000     0.551080000000    -0.502055   
O52      O      0.409670000000     0.276220000000     0.616160000000    -0.501156   
O53      O      0.226140000000     0.909320000000     0.298230000000    -0.501783   
O54      O      0.384590000000     0.991720000000     0.384650000000    -0.503669   
O55      O      0.255670000000     0.856910000000     0.279090000000    -0.506389   
O56      O      0.225990000000     0.851240000000     0.362990000000    -0.497869   
O57      O      0.310040000000     0.988180000000     0.278320000000    -0.508278   
O58      O      0.392410000000     0.913780000000     0.366710000000    -0.496657   
O59      O      0.317030000000     0.926970000000     0.331770000000    -0.867571   
O60      O      0.389020000000     0.934320000000     0.281650000000    -0.505283   
O61      O      0.334800000000     0.852950000000     0.301160000000    -0.499891   
O62      O      0.252100000000     0.932370000000     0.382310000000    -0.513587   
O63      O      0.310360000000     0.858290000000     0.384660000000    -0.50798    
O64      O      0.391670000000     0.017440000000     0.299470000000    -0.494968   
O65      O      0.330220000000     0.017280000000     0.362070000000    -0.504625   
O66      O      0.407290000000     0.670490000000     0.049910000000    -0.502821   
O67      O      0.491930000000     0.829540000000     0.134680000000    -0.510251   
O68      O      0.488460000000     0.696440000000     0.029200000000    -0.507428   
O69      O      0.467720000000     0.669010000000     0.113540000000    -0.498747   
O70      O      0.413090000000     0.754610000000     0.031350000000    -0.512199   
O71      O      0.575310000000     0.834010000000     0.112900000000    -0.502149   
O72      O      0.483410000000     0.759810000000     0.082020000000    -0.86534    
O73      O      0.545260000000     0.828360000000     0.029290000000    -0.511294   
O74      O      0.573390000000     0.774810000000     0.048270000000    -0.499185   
O75      O      0.414560000000     0.697080000000     0.134520000000    -0.5115     
O76      O      0.547270000000     0.752770000000     0.132840000000    -0.510993   
O77      O      0.467920000000     0.835520000000     0.051080000000    -0.501991   
O78      O      0.409670000000     0.776220000000     0.116160000000    -0.501163   
O79      O      0.226140000000     0.909320000000     0.798230000000    -0.501805   
O80      O      0.384590000000     0.991720000000     0.884650000000    -0.503667   
O81      O      0.255670000000     0.856910000000     0.779090000000    -0.506426   
O82      O      0.225990000000     0.851240000000     0.862990000000    -0.497877   
O83      O      0.310040000000     0.988180000000     0.778320000000    -0.50828    
O84      O      0.392410000000     0.913780000000     0.866710000000    -0.496648   
O85      O      0.317030000000     0.926970000000     0.831770000000    -0.86758    
O86      O      0.389020000000     0.934320000000     0.781650000000    -0.505244   
O87      O      0.334800000000     0.852950000000     0.801170000000    -0.499856   
O88      O      0.252100000000     0.932370000000     0.882310000000    -0.51359    
O89      O      0.310360000000     0.858290000000     0.884660000000    -0.50798    
O90      O      0.391670000000     0.017440000000     0.799470000000    -0.494971   
O91      O      0.330220000000     0.017280000000     0.862070000000    -0.504628   
O92      O      0.407290000000     0.670490000000     0.549910000000    -0.502826   
O93      O      0.491930000000     0.829540000000     0.634680000000    -0.510252   
O94      O      0.488460000000     0.696440000000     0.529200000000    -0.507406   
O95      O      0.467720000000     0.669010000000     0.613550000000    -0.498768   
O96      O      0.413090000000     0.754610000000     0.531350000000    -0.512194   
O97      O      0.575310000000     0.834010000000     0.612900000000    -0.502155   
O98      O      0.483410000000     0.759810000000     0.582020000000    -0.865334   
O99      O      0.545260000000     0.828360000000     0.529290000000    -0.511325   
O100     O      0.573390000000     0.774810000000     0.548260000000    -0.499203   
O101     O      0.414560000000     0.697080000000     0.634520000000    -0.511538   
O102     O      0.547270000000     0.752770000000     0.632840000000    -0.510978   
O103     O      0.467920000000     0.835520000000     0.551080000000    -0.501989   
O104     O      0.409670000000     0.776220000000     0.616160000000    -0.501161   
O105     O      0.726140000000     0.409320000000     0.298230000000    -0.501613   
O106     O      0.884590000000     0.491720000000     0.384650000000    -0.503473   
O107     O      0.755670000000     0.356910000000     0.279090000000    -0.506412   
O108     O      0.726000000000     0.351240000000     0.362990000000    -0.497897   
O109     O      0.810040000000     0.488180000000     0.278320000000    -0.508196   
O110     O      0.892400000000     0.413780000000     0.366710000000    -0.496582   
O111     O      0.817030000000     0.426970000000     0.331770000000    -0.867881   
O112     O      0.889020000000     0.434320000000     0.281650000000    -0.505143   
O113     O      0.834800000000     0.352950000000     0.301160000000    -0.49974    
O114     O      0.752100000000     0.432370000000     0.382310000000    -0.51341    
O115     O      0.810360000000     0.358290000000     0.384660000000    -0.507805   
O116     O      0.891670000000     0.517440000000     0.299470000000    -0.494857   
O117     O      0.830220000000     0.517280000000     0.362070000000    -0.504675   
O118     O      0.907290000000     0.170490000000     0.049910000000    -0.502318   
O119     O      0.991920000000     0.329540000000     0.134680000000    -0.507264   
O120     O      0.988460000000     0.196440000000     0.029200000000    -0.504645   
O121     O      0.967720000000     0.169010000000     0.113540000000    -0.4964     
O122     O      0.913090000000     0.254610000000     0.031350000000    -0.511643   
O123     O      0.075310000000     0.334020000000     0.112900000000    -0.501339   
O124     O      0.983410000000     0.259810000000     0.082020000000    -0.860784   
O125     O      0.045260000000     0.328360000000     0.029290000000    -0.511271   
O126     O      0.073400000000     0.274810000000     0.048270000000    -0.498358   
O127     O      0.914560000000     0.197080000000     0.134520000000    -0.51093    
O128     O      0.047270000000     0.252770000000     0.132840000000    -0.510854   
O129     O      0.967910000000     0.335520000000     0.051080000000    -0.499526   
O130     O      0.909670000000     0.276220000000     0.116160000000    -0.500762   
O131     O      0.726140000000     0.409320000000     0.798230000000    -0.501635   
O132     O      0.884590000000     0.491720000000     0.884650000000    -0.503471   
O133     O      0.755670000000     0.356910000000     0.779090000000    -0.50645    
O134     O      0.726000000000     0.351240000000     0.862990000000    -0.497905   
O135     O      0.810040000000     0.488180000000     0.778320000000    -0.508197   
O136     O      0.892400000000     0.413780000000     0.866710000000    -0.496573   
O137     O      0.817030000000     0.426970000000     0.831770000000    -0.867889   
O138     O      0.889020000000     0.434320000000     0.781650000000    -0.505104   
O139     O      0.834800000000     0.352950000000     0.801170000000    -0.499705   
O140     O      0.752100000000     0.432370000000     0.882310000000    -0.513413   
O141     O      0.810360000000     0.358290000000     0.884660000000    -0.507805   
O142     O      0.891670000000     0.517440000000     0.799470000000    -0.49486    
O143     O      0.830220000000     0.517280000000     0.862070000000    -0.504678   
O144     O      0.907290000000     0.170490000000     0.549910000000    -0.502323   
O145     O      0.991920000000     0.329540000000     0.634680000000    -0.507265   
O146     O      0.988460000000     0.196440000000     0.529200000000    -0.504623   
O147     O      0.967720000000     0.169010000000     0.613550000000    -0.496421   
O148     O      0.913090000000     0.254610000000     0.531350000000    -0.511638   
O149     O      0.075310000000     0.334020000000     0.612900000000    -0.501345   
O150     O      0.983410000000     0.259810000000     0.582020000000    -0.860777   
O151     O      0.045260000000     0.328360000000     0.529290000000    -0.511302   
O152     O      0.073400000000     0.274810000000     0.548260000000    -0.498377   
O153     O      0.914560000000     0.197080000000     0.634520000000    -0.510969   
O154     O      0.047270000000     0.252770000000     0.632840000000    -0.510839   
O155     O      0.967910000000     0.335520000000     0.551080000000    -0.499524   
O156     O      0.909670000000     0.276220000000     0.616160000000    -0.500761   
O157     O      0.726140000000     0.909320000000     0.298230000000    -0.501659   
O158     O      0.884590000000     0.991720000000     0.384650000000    -0.503586   
O159     O      0.755670000000     0.856910000000     0.279090000000    -0.506359   
O160     O      0.725990000000     0.851240000000     0.362990000000    -0.497736   
O161     O      0.810040000000     0.988180000000     0.278320000000    -0.508274   
O162     O      0.892410000000     0.913780000000     0.366710000000    -0.496462   
O163     O      0.817030000000     0.926970000000     0.331770000000    -0.867691   
O164     O      0.889020000000     0.934320000000     0.281650000000    -0.505147   
O165     O      0.834800000000     0.852950000000     0.301160000000    -0.499815   
O166     O      0.752100000000     0.932370000000     0.382310000000    -0.513574   
O167     O      0.810360000000     0.858290000000     0.384660000000    -0.507964   
O168     O      0.891670000000     0.017440000000     0.299470000000    -0.49478    
O169     O      0.830220000000     0.017280000000     0.362070000000    -0.504583   
O170     O      0.907290000000     0.670490000000     0.049910000000    -0.502325   
O171     O      0.991930000000     0.829540000000     0.134680000000    -0.507186   
O172     O      0.988460000000     0.696440000000     0.029200000000    -0.504658   
O173     O      0.967720000000     0.669010000000     0.113540000000    -0.496425   
O174     O      0.913100000000     0.754610000000     0.031350000000    -0.511628   
O175     O      0.075310000000     0.834010000000     0.112900000000    -0.501428   
O176     O      0.983410000000     0.759810000000     0.082020000000    -0.860794   
O177     O      0.045270000000     0.828360000000     0.029290000000    -0.511313   
O178     O      0.073390000000     0.774810000000     0.048270000000    -0.498616   
O179     O      0.914560000000     0.697080000000     0.134520000000    -0.510936   
O180     O      0.047270000000     0.752770000000     0.132840000000    -0.510913   
O181     O      0.967920000000     0.835520000000     0.051080000000    -0.499569   
O182     O      0.909670000000     0.776220000000     0.116160000000    -0.500722   
O183     O      0.726140000000     0.909320000000     0.798230000000    -0.501681   
O184     O      0.884590000000     0.991720000000     0.884650000000    -0.503584   
O185     O      0.755670000000     0.856910000000     0.779090000000    -0.506397   
O186     O      0.725990000000     0.851240000000     0.862990000000    -0.497744   
O187     O      0.810040000000     0.988180000000     0.778320000000    -0.508275   
O188     O      0.892410000000     0.913780000000     0.866710000000    -0.496453   
O189     O      0.817030000000     0.926970000000     0.831770000000    -0.8677     
O190     O      0.889020000000     0.934320000000     0.781650000000    -0.505108   
O191     O      0.834800000000     0.852950000000     0.801170000000    -0.499781   
O192     O      0.752100000000     0.932370000000     0.882310000000    -0.513577   
O193     O      0.810360000000     0.858290000000     0.884660000000    -0.507964   
O194     O      0.891670000000     0.017440000000     0.799470000000    -0.494782   
O195     O      0.830220000000     0.017280000000     0.862070000000    -0.504586   
O196     O      0.907290000000     0.670490000000     0.549910000000    -0.50233    
O197     O      0.991930000000     0.829540000000     0.634680000000    -0.507187   
O198     O      0.988460000000     0.696440000000     0.529200000000    -0.504636   
O199     O      0.967720000000     0.669010000000     0.613550000000    -0.496446   
O200     O      0.913100000000     0.754610000000     0.531350000000    -0.511623   
O201     O      0.075310000000     0.834010000000     0.612900000000    -0.501434   
O202     O      0.983410000000     0.759810000000     0.582020000000    -0.860788   
O203     O      0.045270000000     0.828360000000     0.529290000000    -0.511344   
O204     O      0.073390000000     0.774810000000     0.548260000000    -0.498635   
O205     O      0.914560000000     0.697080000000     0.634520000000    -0.510975   
O206     O      0.047270000000     0.752770000000     0.632840000000    -0.510898   
O207     O      0.967920000000     0.835520000000     0.551080000000    -0.499567   
O208     O      0.909670000000     0.776220000000     0.616160000000    -0.50072    


