data_structure

_audit_creation_method RASPA-1.0
_audit_creation_date 2023-6-4
_audit_author_name 'Poobodin Mano'

_cell_length_a    28.7906
_cell_length_b    28.8152
_cell_length_c    30.9541
_cell_angle_alpha 90
_cell_angle_beta  90
_cell_angle_gamma 120
_cell_volume      22239.3

_symmetry_cell_setting          triclinic
_symmetry_space_group_name_Hall 'P 1'
_symmetry_space_group_name_H-M  'P 1'
_symmetry_Int_Tables_number     1

_symmetry_equiv_pos_as_xyz 'x,y,z'

loop_
_atom_site_label
_atom_site_type_symbol
_atom_site_fract_x
_atom_site_fract_y
_atom_site_fract_z
_atom_site_charge
C1       C      0.231100000000     0.386970000000     0.274450000000     0.540216   
C2       C      0.229890000000     0.395330000000     0.390290000000     0.530432   
C3       C      0.373830000000     0.531740000000     0.391080000000     0.529699   
C4       C      0.375550000000     0.395230000000     0.276100000000     0.53143    
C5       C      0.366450000000     0.387960000000     0.392230000000     0.529498   
C6       C      0.367970000000     0.531520000000     0.274920000000     0.530151   
C7       C      0.438570000000     0.314330000000     0.026570000000     0.541514   
C8       C      0.448740000000     0.322320000000     0.142070000000     0.541926   
C9       C      0.585100000000     0.314230000000     0.140130000000     0.529775   
C10      C      0.446580000000     0.178420000000     0.024690000000     0.542233   
C11      C      0.441730000000     0.178120000000     0.141300000000     0.542442   
C12      C      0.583690000000     0.322510000000     0.024310000000     0.541593   
C13      C      0.172970000000     0.326430000000     0.938920000000     0.0299674  
C14      C      0.677530000000     0.410440000000     0.441490000000    -0.0264405  
C15      C      0.137550000000     0.308990000000     0.973870000000     0.04323    
C16      C      0.639530000000     0.392050000000     0.474710000000     0.208517   
C17      C      0.641670000000     0.382990000000     0.189060000000     0.0307018  
C18      C      0.637800000000     0.299290000000     0.191140000000    -0.0284036  
C19      C      0.177010000000     0.400380000000     0.224080000000     0.0448422  
C20      C      0.175660000000     0.317640000000     0.224480000000     0.207439   
C21      C      0.354140000000     0.084370000000     0.223370000000     0.0295194  
C22      C      0.437800000000     0.588080000000     0.226820000000    -0.0261531  
C23      C      0.373670000000     0.122880000000     0.190730000000     0.0434187  
C24      C      0.456430000000     0.624140000000     0.192140000000     0.209035   
C25      C      0.440620000000     0.584870000000     0.442520000000     0.0292473  
C26      C      0.360510000000     0.588260000000     0.439150000000    -0.0258655  
C27      C      0.459560000000     0.123390000000     0.975160000000     0.0434035  
C28      C      0.377920000000     0.124340000000     0.973810000000     0.209852   
C29      C      0.435430000000     0.399570000000     0.440780000000     0.0319628  
C30      C      0.350140000000     0.321790000000     0.945080000000    -0.0270768  
C31      C      0.452750000000     0.381610000000     0.475830000000     0.0430368  
C32      C      0.368230000000     0.302230000000     0.978550000000     0.20606    
C33      C      0.363560000000     0.326160000000     0.227670000000     0.0314357  
C34      C      0.442880000000     0.410330000000     0.224770000000    -0.0260958  
C35      C      0.381480000000     0.308680000000     0.192710000000     0.0447068  
C36      C      0.462430000000     0.391930000000     0.191540000000     0.208648   
C37      C      0.231100000000     0.386970000000     0.774450000000     0.540217   
C38      C      0.229890000000     0.395330000000     0.890290000000     0.530432   
C39      C      0.373830000000     0.531740000000     0.891080000000     0.529693   
C40      C      0.375550000000     0.395230000000     0.776100000000     0.531389   
C41      C      0.366450000000     0.387960000000     0.892230000000     0.529493   
C42      C      0.367970000000     0.531520000000     0.774920000000     0.530146   
C43      C      0.438570000000     0.314330000000     0.526570000000     0.541629   
C44      C      0.448740000000     0.322320000000     0.642070000000     0.541972   
C45      C      0.585100000000     0.314230000000     0.640130000000     0.529788   
C46      C      0.446580000000     0.178420000000     0.524690000000     0.542347   
C47      C      0.441730000000     0.178120000000     0.641300000000     0.542447   
C48      C      0.583690000000     0.322510000000     0.524320000000     0.541793   
C49      C      0.172970000000     0.326430000000     0.438920000000     0.0299617  
C50      C      0.677530000000     0.410440000000     0.941490000000    -0.026426   
C51      C      0.137550000000     0.308990000000     0.473870000000     0.0432119  
C52      C      0.639530000000     0.392050000000     0.974710000000     0.208521   
C53      C      0.641670000000     0.382990000000     0.689060000000     0.0307039  
C54      C      0.637800000000     0.299290000000     0.691140000000    -0.0284009  
C55      C      0.177010000000     0.400380000000     0.724080000000     0.0448439  
C56      C      0.175660000000     0.317640000000     0.724480000000     0.20744    
C57      C      0.354140000000     0.084370000000     0.723370000000     0.0295216  
C58      C      0.437800000000     0.588080000000     0.726820000000    -0.0261505  
C59      C      0.373670000000     0.122880000000     0.690730000000     0.0434209  
C60      C      0.456430000000     0.624140000000     0.692140000000     0.209037   
C61      C      0.440620000000     0.584870000000     0.942520000000     0.0292584  
C62      C      0.360510000000     0.588260000000     0.939150000000    -0.0258359  
C63      C      0.459560000000     0.123390000000     0.475160000000     0.0433971  
C64      C      0.377920000000     0.124340000000     0.473810000000     0.209911   
C65      C      0.435430000000     0.399570000000     0.940780000000     0.0319684  
C66      C      0.350140000000     0.321790000000     0.445080000000    -0.0271193  
C67      C      0.452750000000     0.381610000000     0.975840000000     0.0430741  
C68      C      0.368230000000     0.302230000000     0.478540000000     0.206037   
C69      C      0.363560000000     0.326160000000     0.727670000000     0.0314345  
C70      C      0.442880000000     0.410330000000     0.724770000000    -0.026095   
C71      C      0.381480000000     0.308680000000     0.692710000000     0.0447121  
C72      C      0.462430000000     0.391930000000     0.691540000000     0.208652   
C73      C      0.231100000000     0.886970000000     0.274450000000     0.540157   
C74      C      0.229890000000     0.895330000000     0.390290000000     0.530416   
C75      C      0.373830000000     0.031750000000     0.391080000000     0.529296   
C76      C      0.375550000000     0.895230000000     0.276100000000     0.531376   
C77      C      0.366450000000     0.887960000000     0.392230000000     0.529463   
C78      C      0.367970000000     0.031510000000     0.274920000000     0.530168   
C79      C      0.438570000000     0.814330000000     0.026570000000     0.541564   
C80      C      0.448740000000     0.822320000000     0.142070000000     0.541924   
C81      C      0.585100000000     0.814240000000     0.140130000000     0.529773   
C82      C      0.446580000000     0.678420000000     0.024690000000     0.542221   
C83      C      0.441720000000     0.678120000000     0.141300000000     0.542447   
C84      C      0.583690000000     0.822510000000     0.024310000000     0.541601   
C85      C      0.172970000000     0.826430000000     0.938920000000     0.0299601  
C86      C      0.677530000000     0.910450000000     0.441490000000    -0.02652    
C87      C      0.137550000000     0.808990000000     0.973870000000     0.0432262  
C88      C      0.639530000000     0.892040000000     0.474710000000     0.208522   
C89      C      0.641670000000     0.882990000000     0.189060000000     0.0306703  
C90      C      0.637800000000     0.799290000000     0.191140000000    -0.0284342  
C91      C      0.177000000000     0.900380000000     0.224080000000     0.044776   
C92      C      0.175660000000     0.817640000000     0.224480000000     0.207425   
C93      C      0.354130000000     0.584370000000     0.223370000000     0.0294308  
C94      C      0.437800000000     0.088080000000     0.226820000000    -0.0261526  
C95      C      0.373670000000     0.622880000000     0.190730000000     0.0434414  
C96      C      0.456440000000     0.124140000000     0.192140000000     0.209054   
C97      C      0.440620000000     0.084870000000     0.442520000000     0.0292337  
C98      C      0.360510000000     0.088260000000     0.439150000000    -0.0258771  
C99      C      0.459570000000     0.623390000000     0.975160000000     0.0433211  
C100     C      0.377920000000     0.624340000000     0.973810000000     0.209817   
C101     C      0.435430000000     0.899570000000     0.440780000000     0.0319405  
C102     C      0.350140000000     0.821790000000     0.945080000000    -0.0270843  
C103     C      0.452750000000     0.881610000000     0.475830000000     0.0430377  
C104     C      0.368230000000     0.802230000000     0.978550000000     0.20606    
C105     C      0.363560000000     0.826160000000     0.227670000000     0.031417   
C106     C      0.442880000000     0.910330000000     0.224770000000    -0.0261338  
C107     C      0.381480000000     0.808690000000     0.192710000000     0.0447075  
C108     C      0.462430000000     0.891930000000     0.191540000000     0.208699   
C109     C      0.231100000000     0.886970000000     0.774450000000     0.540159   
C110     C      0.229890000000     0.895330000000     0.890290000000     0.530417   
C111     C      0.373830000000     0.031750000000     0.891080000000     0.529299   
C112     C      0.375550000000     0.895230000000     0.776100000000     0.531378   
C113     C      0.366450000000     0.887960000000     0.892230000000     0.529465   
C114     C      0.367970000000     0.031510000000     0.774920000000     0.53017    
C115     C      0.438570000000     0.814330000000     0.526570000000     0.541674   
C116     C      0.448740000000     0.822320000000     0.642070000000     0.541928   
C117     C      0.585100000000     0.814240000000     0.640130000000     0.52978    
C118     C      0.446580000000     0.678420000000     0.524690000000     0.542334   
C119     C      0.441720000000     0.678120000000     0.641300000000     0.542451   
C120     C      0.583690000000     0.822510000000     0.524320000000     0.541793   
C121     C      0.172970000000     0.826430000000     0.438920000000     0.0299544  
C122     C      0.677530000000     0.910450000000     0.941490000000    -0.0265056  
C123     C      0.137550000000     0.808990000000     0.473870000000     0.0432078  
C124     C      0.639530000000     0.892040000000     0.974710000000     0.208527   
C125     C      0.641670000000     0.882990000000     0.689060000000     0.0306725  
C126     C      0.637800000000     0.799290000000     0.691140000000    -0.0284316  
C127     C      0.177000000000     0.900380000000     0.724080000000     0.0447779  
C128     C      0.175660000000     0.817640000000     0.724480000000     0.207427   
C129     C      0.354130000000     0.584370000000     0.723370000000     0.0294332  
C130     C      0.437800000000     0.088080000000     0.726820000000    -0.0261504  
C131     C      0.373670000000     0.622880000000     0.690730000000     0.0434442  
C132     C      0.456440000000     0.124140000000     0.692140000000     0.209055   
C133     C      0.440620000000     0.084870000000     0.942520000000     0.0292455  
C134     C      0.360510000000     0.088260000000     0.939150000000    -0.0258471  
C135     C      0.459570000000     0.623390000000     0.475160000000     0.0433144  
C136     C      0.377920000000     0.624340000000     0.473810000000     0.209876   
C137     C      0.435430000000     0.899570000000     0.940780000000     0.0319467  
C138     C      0.350140000000     0.821790000000     0.445080000000    -0.0271271  
C139     C      0.452750000000     0.881610000000     0.975840000000     0.0430755  
C140     C      0.368230000000     0.802230000000     0.478540000000     0.206037   
C141     C      0.363560000000     0.826160000000     0.727670000000     0.0314189  
C142     C      0.442880000000     0.910330000000     0.724770000000    -0.0261324  
C143     C      0.381480000000     0.808690000000     0.692710000000     0.04471    
C144     C      0.462430000000     0.891930000000     0.691540000000     0.208703   
C145     C      0.731100000000     0.386970000000     0.274450000000     0.540046   
C146     C      0.729890000000     0.395330000000     0.390290000000     0.530499   
C147     C      0.873830000000     0.531740000000     0.391080000000     0.529782   
C148     C      0.875550000000     0.395230000000     0.276100000000     0.531483   
C149     C      0.866450000000     0.387960000000     0.392230000000     0.529537   
C150     C      0.867970000000     0.531520000000     0.274920000000     0.530175   
C151     C      0.938570000000     0.314330000000     0.026570000000     0.541124   
C152     C      0.948740000000     0.322320000000     0.142070000000     0.541551   
C153     C      0.085100000000     0.314230000000     0.140130000000     0.528943   
C154     C      0.946580000000     0.178420000000     0.024690000000     0.541644   
C155     C      0.941730000000     0.178120000000     0.141300000000     0.542266   
C156     C      0.083690000000     0.322510000000     0.024310000000     0.540789   
C157     C      0.672970000000     0.326430000000     0.938920000000     0.0301209  
C158     C      0.177530000000     0.410440000000     0.441490000000    -0.0265812  
C159     C      0.637550000000     0.308990000000     0.973870000000     0.0434614  
C160     C      0.139530000000     0.392050000000     0.474710000000     0.208342   
C161     C      0.141670000000     0.382990000000     0.189060000000     0.0304379  
C162     C      0.137800000000     0.299290000000     0.191140000000    -0.0286093  
C163     C      0.677000000000     0.400380000000     0.224080000000     0.0448897  
C164     C      0.675660000000     0.317640000000     0.224480000000     0.207542   
C165     C      0.854130000000     0.084370000000     0.223370000000     0.0294016  
C166     C      0.937800000000     0.588080000000     0.226820000000    -0.0268051  
C167     C      0.873670000000     0.122880000000     0.190730000000     0.0436599  
C168     C      0.956440000000     0.624140000000     0.192140000000     0.211838   
C169     C      0.940620000000     0.584870000000     0.442520000000     0.0294282  
C170     C      0.860510000000     0.588260000000     0.439150000000    -0.0257812  
C171     C      0.959560000000     0.123390000000     0.975160000000     0.0435757  
C172     C      0.877920000000     0.124340000000     0.973810000000     0.209952   
C173     C      0.935430000000     0.399570000000     0.440780000000     0.0321629  
C174     C      0.850140000000     0.321790000000     0.945080000000    -0.0269975  
C175     C      0.952750000000     0.381610000000     0.475830000000     0.0432075  
C176     C      0.868230000000     0.302230000000     0.978550000000     0.206131   
C177     C      0.863560000000     0.326160000000     0.227670000000     0.0314355  
C178     C      0.942880000000     0.410330000000     0.224770000000    -0.026727   
C179     C      0.881480000000     0.308680000000     0.192710000000     0.0448965  
C180     C      0.962430000000     0.391930000000     0.191540000000     0.211403   
C181     C      0.731100000000     0.386970000000     0.774450000000     0.540047   
C182     C      0.729890000000     0.395330000000     0.890290000000     0.530499   
C183     C      0.873830000000     0.531740000000     0.891080000000     0.529776   
C184     C      0.875550000000     0.395230000000     0.776100000000     0.531442   
C185     C      0.866450000000     0.387960000000     0.892230000000     0.529533   
C186     C      0.867970000000     0.531520000000     0.774920000000     0.530171   
C187     C      0.938570000000     0.314330000000     0.526570000000     0.54124    
C188     C      0.948740000000     0.322320000000     0.642070000000     0.541597   
C189     C      0.085100000000     0.314230000000     0.640130000000     0.528956   
C190     C      0.946580000000     0.178420000000     0.524690000000     0.541758   
C191     C      0.941730000000     0.178120000000     0.641300000000     0.542271   
C192     C      0.083690000000     0.322510000000     0.524320000000     0.540989   
C193     C      0.672970000000     0.326430000000     0.438920000000     0.0301153  
C194     C      0.177530000000     0.410440000000     0.941490000000    -0.0265667  
C195     C      0.637550000000     0.308990000000     0.473870000000     0.0434433  
C196     C      0.139530000000     0.392050000000     0.974710000000     0.208346   
C197     C      0.141670000000     0.382990000000     0.689060000000     0.03044    
C198     C      0.137800000000     0.299290000000     0.691140000000    -0.0286066  
C199     C      0.677000000000     0.400380000000     0.724080000000     0.0448914  
C200     C      0.675660000000     0.317640000000     0.724480000000     0.207544   
C201     C      0.854130000000     0.084370000000     0.723370000000     0.0294037  
C202     C      0.937800000000     0.588080000000     0.726820000000    -0.0268025  
C203     C      0.873670000000     0.122880000000     0.690730000000     0.0436621  
C204     C      0.956440000000     0.624140000000     0.692140000000     0.21184    
C205     C      0.940620000000     0.584870000000     0.942520000000     0.0294393  
C206     C      0.860510000000     0.588260000000     0.939150000000    -0.0257516  
C207     C      0.959560000000     0.123390000000     0.475160000000     0.0435694  
C208     C      0.877920000000     0.124340000000     0.473810000000     0.210011   
C209     C      0.935430000000     0.399570000000     0.940780000000     0.0321686  
C210     C      0.850140000000     0.321790000000     0.445080000000    -0.0270401  
C211     C      0.952750000000     0.381610000000     0.975840000000     0.0432446  
C212     C      0.868230000000     0.302230000000     0.478540000000     0.206108   
C213     C      0.863560000000     0.326160000000     0.727670000000     0.0314343  
C214     C      0.942880000000     0.410330000000     0.724770000000    -0.0267262  
C215     C      0.881480000000     0.308680000000     0.692710000000     0.0449017  
C216     C      0.962430000000     0.391930000000     0.691540000000     0.211407   
C217     C      0.731100000000     0.886970000000     0.274450000000     0.540216   
C218     C      0.729890000000     0.895330000000     0.390290000000     0.530483   
C219     C      0.873830000000     0.031750000000     0.391080000000     0.529363   
C220     C      0.875550000000     0.895230000000     0.276100000000     0.531424   
C221     C      0.866450000000     0.887960000000     0.392230000000     0.529499   
C222     C      0.867970000000     0.031510000000     0.274920000000     0.53018    
C223     C      0.938570000000     0.814330000000     0.026570000000     0.541128   
C224     C      0.948740000000     0.822320000000     0.142070000000     0.541552   
C225     C      0.085100000000     0.814240000000     0.140130000000     0.528938   
C226     C      0.946580000000     0.678420000000     0.024690000000     0.541639   
C227     C      0.941730000000     0.678120000000     0.141300000000     0.542259   
C228     C      0.083690000000     0.822510000000     0.024310000000     0.5408     
C229     C      0.672970000000     0.826430000000     0.938920000000     0.0301098  
C230     C      0.177530000000     0.910450000000     0.441490000000    -0.0266604  
C231     C      0.637550000000     0.808990000000     0.973870000000     0.0434646  
C232     C      0.139530000000     0.892040000000     0.474710000000     0.208348   
C233     C      0.141670000000     0.882990000000     0.189060000000     0.0304424  
C234     C      0.137800000000     0.799290000000     0.191140000000    -0.0285967  
C235     C      0.677000000000     0.900380000000     0.224080000000     0.0448945  
C236     C      0.675660000000     0.817640000000     0.224480000000     0.20764    
C237     C      0.854130000000     0.584370000000     0.223370000000     0.0293881  
C238     C      0.937800000000     0.088080000000     0.226820000000    -0.0268065  
C239     C      0.873670000000     0.622880000000     0.190730000000     0.0436532  
C240     C      0.956440000000     0.124140000000     0.192140000000     0.211855   
C241     C      0.940620000000     0.084870000000     0.442520000000     0.029435   
C242     C      0.860510000000     0.088260000000     0.439150000000    -0.0258264  
C243     C      0.959560000000     0.623390000000     0.975160000000     0.0435592  
C244     C      0.877920000000     0.624340000000     0.973810000000     0.209905   
C245     C      0.935430000000     0.899570000000     0.440780000000     0.032142   
C246     C      0.850140000000     0.821790000000     0.945080000000    -0.0270043  
C247     C      0.952750000000     0.881610000000     0.475830000000     0.0432052  
C248     C      0.868230000000     0.802230000000     0.978550000000     0.206129   
C249     C      0.863560000000     0.826160000000     0.227670000000     0.031416   
C250     C      0.942880000000     0.910330000000     0.224770000000    -0.0267553  
C251     C      0.881480000000     0.808690000000     0.192710000000     0.0448966  
C252     C      0.962430000000     0.891930000000     0.191540000000     0.211449   
C253     C      0.731100000000     0.886970000000     0.774450000000     0.540217   
C254     C      0.729890000000     0.895330000000     0.890290000000     0.530485   
C255     C      0.873830000000     0.031750000000     0.891080000000     0.529366   
C256     C      0.875550000000     0.895230000000     0.776100000000     0.531426   
C257     C      0.866450000000     0.887960000000     0.892230000000     0.529501   
C258     C      0.867970000000     0.031510000000     0.774920000000     0.530182   
C259     C      0.938570000000     0.814330000000     0.526570000000     0.541237   
C260     C      0.948740000000     0.822320000000     0.642070000000     0.541555   
C261     C      0.085100000000     0.814240000000     0.640130000000     0.528945   
C262     C      0.946580000000     0.678420000000     0.524690000000     0.541752   
C263     C      0.941730000000     0.678120000000     0.641300000000     0.542264   
C264     C      0.083690000000     0.822510000000     0.524320000000     0.540992   
C265     C      0.672970000000     0.826430000000     0.438920000000     0.0301042  
C266     C      0.177530000000     0.910450000000     0.941490000000    -0.0266459  
C267     C      0.637550000000     0.808990000000     0.473870000000     0.0434462  
C268     C      0.139530000000     0.892040000000     0.974710000000     0.208352   
C269     C      0.141670000000     0.882990000000     0.689060000000     0.0304446  
C270     C      0.137800000000     0.799290000000     0.691140000000    -0.0285941  
C271     C      0.677000000000     0.900380000000     0.724080000000     0.0448964  
C272     C      0.675660000000     0.817640000000     0.724480000000     0.207642   
C273     C      0.854130000000     0.584370000000     0.723370000000     0.0293904  
C274     C      0.937800000000     0.088080000000     0.726820000000    -0.0268043  
C275     C      0.873670000000     0.622880000000     0.690730000000     0.0436559  
C276     C      0.956440000000     0.124140000000     0.692140000000     0.211856   
C277     C      0.940620000000     0.084870000000     0.942520000000     0.0294467  
C278     C      0.860510000000     0.088260000000     0.939150000000    -0.0257964  
C279     C      0.959560000000     0.623390000000     0.475160000000     0.0435525  
C280     C      0.877920000000     0.624340000000     0.473810000000     0.209964   
C281     C      0.935430000000     0.899570000000     0.940780000000     0.0321483  
C282     C      0.850140000000     0.821790000000     0.445080000000    -0.0270472  
C283     C      0.952750000000     0.881610000000     0.975840000000     0.0432429  
C284     C      0.868230000000     0.802230000000     0.478540000000     0.206106   
C285     C      0.863560000000     0.826160000000     0.727670000000     0.0314178  
C286     C      0.942880000000     0.910330000000     0.724770000000    -0.026754   
C287     C      0.881480000000     0.808690000000     0.692710000000     0.0448991  
C288     C      0.962430000000     0.891930000000     0.691540000000     0.211452   
Fe1      Fe     0.290520000000     0.471680000000     0.332350000000     1.36317    
Fe2      Fe     0.391390000000     0.471800000000     0.333770000000     1.36271    
Fe3      Fe     0.290680000000     0.371090000000     0.333290000000     1.36431    
Fe4      Fe     0.524250000000     0.338550000000     0.083140000000     1.36924    
Fe5      Fe     0.524300000000     0.237890000000     0.082160000000     1.36892    
Fe6      Fe     0.423490000000     0.237800000000     0.084090000000     1.37161    
Fe7      Fe     0.290520000000     0.471680000000     0.832350000000     1.36317    
Fe8      Fe     0.391390000000     0.471800000000     0.833770000000     1.36257    
Fe9      Fe     0.290680000000     0.371090000000     0.833290000000     1.36429    
Fe10     Fe     0.524250000000     0.338550000000     0.583140000000     1.3694     
Fe11     Fe     0.524300000000     0.237890000000     0.582160000000     1.36897    
Fe12     Fe     0.423490000000     0.237800000000     0.584090000000     1.37164    
Fe13     Fe     0.290530000000     0.971680000000     0.332350000000     1.36297    
Fe14     Fe     0.391390000000     0.971800000000     0.333770000000     1.36229    
Fe15     Fe     0.290680000000     0.871090000000     0.333290000000     1.36431    
Fe16     Fe     0.524250000000     0.838550000000     0.083140000000     1.36926    
Fe17     Fe     0.524300000000     0.737890000000     0.082160000000     1.36885    
Fe18     Fe     0.423490000000     0.737800000000     0.084090000000     1.37162    
Fe19     Fe     0.290530000000     0.971680000000     0.832350000000     1.36298    
Fe20     Fe     0.391390000000     0.971800000000     0.833770000000     1.36228    
Fe21     Fe     0.290680000000     0.871090000000     0.833290000000     1.36431    
Fe22     Fe     0.524250000000     0.838550000000     0.583140000000     1.36928    
Fe23     Fe     0.524300000000     0.737890000000     0.582160000000     1.3689     
Fe24     Fe     0.423490000000     0.737800000000     0.584090000000     1.37164    
Fe25     Fe     0.790530000000     0.471680000000     0.332350000000     1.36341    
Fe26     Fe     0.891390000000     0.471800000000     0.333770000000     1.36298    
Fe27     Fe     0.790680000000     0.371090000000     0.333290000000     1.36444    
Fe28     Fe     0.024250000000     0.338550000000     0.083140000000     1.36293    
Fe29     Fe     0.024300000000     0.237890000000     0.082160000000     1.36265    
Fe30     Fe     0.923490000000     0.237800000000     0.084090000000     1.37087    
Fe31     Fe     0.790530000000     0.471680000000     0.832350000000     1.36341    
Fe32     Fe     0.891390000000     0.471800000000     0.833770000000     1.36283    
Fe33     Fe     0.790680000000     0.371090000000     0.833290000000     1.36443    
Fe34     Fe     0.024250000000     0.338550000000     0.583140000000     1.36309    
Fe35     Fe     0.024300000000     0.237890000000     0.582160000000     1.3627     
Fe36     Fe     0.923490000000     0.237800000000     0.584090000000     1.3709     
Fe37     Fe     0.790530000000     0.971680000000     0.332350000000     1.36307    
Fe38     Fe     0.891390000000     0.971800000000     0.333770000000     1.36254    
Fe39     Fe     0.790680000000     0.871090000000     0.333290000000     1.3644     
Fe40     Fe     0.024250000000     0.838550000000     0.083140000000     1.36305    
Fe41     Fe     0.024300000000     0.737890000000     0.082160000000     1.36263    
Fe42     Fe     0.923490000000     0.737800000000     0.084090000000     1.37087    
Fe43     Fe     0.790530000000     0.971680000000     0.832350000000     1.36308    
Fe44     Fe     0.891390000000     0.971800000000     0.833770000000     1.36253    
Fe45     Fe     0.790680000000     0.871090000000     0.833290000000     1.3644     
Fe46     Fe     0.024250000000     0.838550000000     0.583140000000     1.36307    
Fe47     Fe     0.024300000000     0.737890000000     0.582160000000     1.36268    
Fe48     Fe     0.923490000000     0.737800000000     0.584090000000     1.37089    
H1       H      0.122880000000     0.268580000000     0.985730000000     0.0348469  
H2       H      0.185080000000     0.299260000000     0.925640000000     0.0374524  
H3       H      0.692800000000     0.451030000000     0.429790000000     0.0618893  
H4       H      0.649810000000     0.445660000000     0.515200000000     0.149756   
H5       H      0.191380000000     0.440660000000     0.236140000000     0.0362343  
H6       H      0.629310000000     0.410050000000     0.175940000000     0.0456303  
H7       H      0.622970000000     0.258920000000     0.179130000000     0.0601047  
H8       H      0.165580000000     0.263770000000     0.264620000000     0.145538   
H9       H      0.346910000000     0.135610000000     0.177570000000     0.0335744  
H10      H      0.313410000000     0.069540000000     0.234590000000     0.0363921  
H11      H      0.464410000000     0.575480000000     0.240550000000     0.0615535  
H12      H      0.530450000000     0.675310000000     0.195330000000     0.154498   
H13      H      0.499120000000     0.136240000000     0.988290000000     0.0330239  
H14      H      0.466580000000     0.570150000000     0.431270000000     0.0360919  
H15      H      0.321240000000     0.575540000000     0.425450000000     0.0626394  
H16      H      0.354940000000     0.175310000000     0.470480000000     0.169182   
H17      H      0.493670000000     0.406580000000     0.486990000000     0.043552   
H18      H      0.463250000000     0.438150000000     0.426730000000     0.0394383  
H19      H      0.309060000000     0.297180000000     0.934140000000     0.0603548  
H20      H      0.315250000000     0.262240000000     0.020540000000     0.149863   
H21      H      0.355790000000     0.268200000000     0.180970000000     0.0365912  
H22      H      0.324350000000     0.298940000000     0.241090000000     0.04519    
H23      H      0.468160000000     0.450990000000     0.236330000000     0.0616824  
H24      H      0.505430000000     0.445450000000     0.150850000000     0.149403   
H25      H      0.122880000000     0.268580000000     0.485730000000     0.0348217  
H26      H      0.185080000000     0.299260000000     0.425640000000     0.0374467  
H27      H      0.692800000000     0.451030000000     0.929790000000     0.0618934  
H28      H      0.649810000000     0.445660000000     0.015200000000     0.149645   
H29      H      0.191380000000     0.440660000000     0.736140000000     0.0362359  
H30      H      0.629310000000     0.410050000000     0.675940000000     0.0456335  
H31      H      0.622970000000     0.258920000000     0.679130000000     0.0601093  
H32      H      0.165580000000     0.263770000000     0.764620000000     0.145538   
H33      H      0.346910000000     0.135610000000     0.677570000000     0.033579   
H34      H      0.313410000000     0.069540000000     0.734590000000     0.0363935  
H35      H      0.464410000000     0.575480000000     0.740550000000     0.0615554  
H36      H      0.530450000000     0.675310000000     0.695330000000     0.154497   
H37      H      0.499120000000     0.136240000000     0.488290000000     0.0329923  
H38      H      0.466580000000     0.570150000000     0.931270000000     0.0360971  
H39      H      0.321240000000     0.575540000000     0.925450000000     0.062633   
H40      H      0.354940000000     0.175310000000     0.970480000000     0.169117   
H41      H      0.493670000000     0.406580000000     0.986990000000     0.0435691  
H42      H      0.463250000000     0.438150000000     0.926720000000     0.0394475  
H43      H      0.309060000000     0.297180000000     0.434140000000     0.0603566  
H44      H      0.315250000000     0.262240000000     0.520540000000     0.149979   
H45      H      0.355790000000     0.268200000000     0.680970000000     0.0365928  
H46      H      0.324350000000     0.298940000000     0.741090000000     0.0451934  
H47      H      0.468160000000     0.450990000000     0.736330000000     0.0616854  
H48      H      0.505430000000     0.445450000000     0.650850000000     0.149418   
H49      H      0.122870000000     0.768580000000     0.985730000000     0.034845   
H50      H      0.185080000000     0.799260000000     0.925640000000     0.0374479  
H51      H      0.692800000000     0.951030000000     0.429790000000     0.0618946  
H52      H      0.649810000000     0.945650000000     0.515200000000     0.14974    
H53      H      0.191390000000     0.940660000000     0.236140000000     0.0362295  
H54      H      0.629310000000     0.910050000000     0.175940000000     0.0456167  
H55      H      0.622970000000     0.758920000000     0.179130000000     0.0601198  
H56      H      0.165580000000     0.763770000000     0.264620000000     0.145532   
H57      H      0.346910000000     0.635620000000     0.177570000000     0.0335522  
H58      H      0.313410000000     0.569540000000     0.234590000000     0.0363759  
H59      H      0.464410000000     0.075480000000     0.240550000000     0.0615835  
H60      H      0.530450000000     0.175310000000     0.195330000000     0.154506   
H61      H      0.499120000000     0.636240000000     0.988290000000     0.0330296  
H62      H      0.466590000000     0.070150000000     0.431270000000     0.0361305  
H63      H      0.321240000000     0.075540000000     0.425450000000     0.0626843  
H64      H      0.354940000000     0.675320000000     0.470480000000     0.169112   
H65      H      0.493670000000     0.906580000000     0.486990000000     0.0435335  
H66      H      0.463240000000     0.938150000000     0.426730000000     0.0394173  
H67      H      0.309060000000     0.797180000000     0.934140000000     0.0603496  
H68      H      0.315250000000     0.762240000000     0.020540000000     0.149856   
H69      H      0.355790000000     0.768200000000     0.180970000000     0.0365832  
H70      H      0.324350000000     0.798940000000     0.241090000000     0.045188   
H71      H      0.468150000000     0.950990000000     0.236330000000     0.0616706  
H72      H      0.505430000000     0.945450000000     0.150850000000     0.149455   
H73      H      0.122870000000     0.768580000000     0.485730000000     0.03482    
H74      H      0.185080000000     0.799260000000     0.425640000000     0.0374421  
H75      H      0.692800000000     0.951030000000     0.929790000000     0.0618988  
H76      H      0.649810000000     0.945650000000     0.015200000000     0.149629   
H77      H      0.191390000000     0.940660000000     0.736140000000     0.0362311  
H78      H      0.629310000000     0.910050000000     0.675940000000     0.0456203  
H79      H      0.622970000000     0.758920000000     0.679130000000     0.0601246  
H80      H      0.165580000000     0.763770000000     0.764620000000     0.145532   
H81      H      0.346910000000     0.635620000000     0.677570000000     0.0335571  
H82      H      0.313410000000     0.569540000000     0.734590000000     0.0363776  
H83      H      0.464410000000     0.075480000000     0.740550000000     0.0615849  
H84      H      0.530450000000     0.175310000000     0.695330000000     0.154505   
H85      H      0.499120000000     0.636240000000     0.488290000000     0.0329981  
H86      H      0.466590000000     0.070150000000     0.931270000000     0.0361353  
H87      H      0.321240000000     0.075540000000     0.925450000000     0.0626777  
H88      H      0.354940000000     0.675320000000     0.970480000000     0.169047   
H89      H      0.493670000000     0.906580000000     0.986990000000     0.0435506  
H90      H      0.463240000000     0.938150000000     0.926720000000     0.0394267  
H91      H      0.309060000000     0.797180000000     0.434140000000     0.0603515  
H92      H      0.315250000000     0.762240000000     0.520540000000     0.149971   
H93      H      0.355790000000     0.768200000000     0.680970000000     0.0365868  
H94      H      0.324350000000     0.798940000000     0.741090000000     0.0451896  
H95      H      0.468150000000     0.950990000000     0.736330000000     0.061672   
H96      H      0.505430000000     0.945450000000     0.650850000000     0.149466   
H97      H      0.622870000000     0.268580000000     0.985730000000     0.0352331  
H98      H      0.685080000000     0.299260000000     0.925640000000     0.0376335  
H99      H      0.192800000000     0.451030000000     0.429790000000     0.0617317  
H100     H      0.149810000000     0.445660000000     0.515200000000     0.149738   
H101     H      0.691390000000     0.440660000000     0.236140000000     0.0364097  
H102     H      0.129310000000     0.410050000000     0.175940000000     0.0454155  
H103     H      0.122970000000     0.258920000000     0.179130000000     0.0599637  
H104     H      0.665580000000     0.263770000000     0.264620000000     0.145844   
H105     H      0.846910000000     0.135610000000     0.177570000000     0.0336133  
H106     H      0.813420000000     0.069540000000     0.234590000000     0.036531   
H107     H      0.964410000000     0.575480000000     0.240550000000     0.0623572  
H108     H      0.030450000000     0.675310000000     0.195330000000     0.154274   
H109     H      0.999120000000     0.136240000000     0.988290000000     0.0336607  
H110     H      0.966590000000     0.570150000000     0.431270000000     0.036463   
H111     H      0.821240000000     0.575540000000     0.425450000000     0.0627263  
H112     H      0.854940000000     0.175310000000     0.470480000000     0.169314   
H113     H      0.993670000000     0.406580000000     0.486990000000     0.0442428  
H114     H      0.963250000000     0.438150000000     0.426730000000     0.0398054  
H115     H      0.809060000000     0.297180000000     0.934140000000     0.0604403  
H116     H      0.815250000000     0.262240000000     0.020540000000     0.149934   
H117     H      0.855790000000     0.268200000000     0.180970000000     0.0366522  
H118     H      0.824350000000     0.298940000000     0.241090000000     0.0452883  
H119     H      0.968150000000     0.450990000000     0.236330000000     0.062501   
H120     H      0.005430000000     0.445450000000     0.150850000000     0.148798   
H121     H      0.622870000000     0.268580000000     0.485730000000     0.035208   
H122     H      0.685080000000     0.299260000000     0.425640000000     0.0376277  
H123     H      0.192800000000     0.451030000000     0.929790000000     0.0617358  
H124     H      0.149810000000     0.445660000000     0.015200000000     0.149627   
H125     H      0.691390000000     0.440660000000     0.736140000000     0.0364113  
H126     H      0.129310000000     0.410050000000     0.675940000000     0.0454187  
H127     H      0.122970000000     0.258920000000     0.679130000000     0.0599682  
H128     H      0.665580000000     0.263770000000     0.764620000000     0.145844   
H129     H      0.846910000000     0.135610000000     0.677570000000     0.0336179  
H130     H      0.813420000000     0.069540000000     0.734590000000     0.0365324  
H131     H      0.964410000000     0.575480000000     0.740550000000     0.0623591  
H132     H      0.030450000000     0.675310000000     0.695330000000     0.154273   
H133     H      0.999120000000     0.136240000000     0.488290000000     0.0336292  
H134     H      0.966590000000     0.570150000000     0.931270000000     0.0364682  
H135     H      0.821240000000     0.575540000000     0.925450000000     0.0627198  
H136     H      0.854940000000     0.175310000000     0.970480000000     0.169249   
H137     H      0.993670000000     0.406580000000     0.986990000000     0.0442598  
H138     H      0.963250000000     0.438150000000     0.926720000000     0.0398147  
H139     H      0.809060000000     0.297180000000     0.434140000000     0.0604422  
H140     H      0.815250000000     0.262240000000     0.520540000000     0.150049   
H141     H      0.855790000000     0.268200000000     0.680970000000     0.0366538  
H142     H      0.824350000000     0.298940000000     0.741090000000     0.0452917  
H143     H      0.968150000000     0.450990000000     0.736330000000     0.062504   
H144     H      0.005430000000     0.445450000000     0.650850000000     0.148813   
H145     H      0.622870000000     0.768580000000     0.985730000000     0.0352265  
H146     H      0.685080000000     0.799260000000     0.925640000000     0.0376297  
H147     H      0.192800000000     0.951030000000     0.429790000000     0.0617404  
H148     H      0.149810000000     0.945650000000     0.515200000000     0.149722   
H149     H      0.691390000000     0.940660000000     0.236140000000     0.0363738  
H150     H      0.129310000000     0.910050000000     0.175940000000     0.0453943  
H151     H      0.122970000000     0.758920000000     0.179130000000     0.0599559  
H152     H      0.665580000000     0.763770000000     0.264620000000     0.145903   
H153     H      0.846910000000     0.635620000000     0.177570000000     0.0336011  
H154     H      0.813420000000     0.569540000000     0.234590000000     0.0364975  
H155     H      0.964410000000     0.075480000000     0.240550000000     0.0623906  
H156     H      0.030450000000     0.175310000000     0.195330000000     0.154278   
H157     H      0.999120000000     0.636240000000     0.988290000000     0.0336483  
H158     H      0.966590000000     0.070150000000     0.431270000000     0.0364999  
H159     H      0.821250000000     0.075540000000     0.425450000000     0.0627853  
H160     H      0.854940000000     0.675320000000     0.470480000000     0.169243   
H161     H      0.993670000000     0.906580000000     0.486990000000     0.0442285  
H162     H      0.963240000000     0.938150000000     0.426730000000     0.0397853  
H163     H      0.809060000000     0.797180000000     0.934140000000     0.0604354  
H164     H      0.815250000000     0.762240000000     0.020540000000     0.149926   
H165     H      0.855790000000     0.768200000000     0.180970000000     0.0366434  
H166     H      0.824350000000     0.798940000000     0.241090000000     0.0452843  
H167     H      0.968150000000     0.950990000000     0.236330000000     0.0624832  
H168     H      0.005430000000     0.945450000000     0.150850000000     0.14885    
H169     H      0.622870000000     0.768580000000     0.485730000000     0.0352016  
H170     H      0.685080000000     0.799260000000     0.425640000000     0.0376239  
H171     H      0.192800000000     0.951030000000     0.929790000000     0.0617446  
H172     H      0.149810000000     0.945650000000     0.015200000000     0.14961    
H173     H      0.691390000000     0.940660000000     0.736140000000     0.0363754  
H174     H      0.129310000000     0.910050000000     0.675940000000     0.0453979  
H175     H      0.122970000000     0.758920000000     0.679130000000     0.0599607  
H176     H      0.665580000000     0.763770000000     0.764620000000     0.145903   
H177     H      0.846910000000     0.635620000000     0.677570000000     0.033606   
H178     H      0.813420000000     0.569540000000     0.734590000000     0.0364992  
H179     H      0.964410000000     0.075480000000     0.740550000000     0.0623919  
H180     H      0.030450000000     0.175310000000     0.695330000000     0.154277   
H181     H      0.999120000000     0.636240000000     0.488290000000     0.033617   
H182     H      0.966590000000     0.070150000000     0.931270000000     0.0365047  
H183     H      0.821250000000     0.075540000000     0.925450000000     0.0627787  
H184     H      0.854940000000     0.675320000000     0.970480000000     0.169179   
H185     H      0.993670000000     0.906580000000     0.986990000000     0.0442454  
H186     H      0.963240000000     0.938150000000     0.926720000000     0.0397946  
H187     H      0.809060000000     0.797180000000     0.434140000000     0.0604373  
H188     H      0.815250000000     0.762240000000     0.520540000000     0.15004    
H189     H      0.855790000000     0.768200000000     0.680970000000     0.036647   
H190     H      0.824350000000     0.798940000000     0.741090000000     0.0452859  
H191     H      0.968150000000     0.950990000000     0.736330000000     0.0624846  
H192     H      0.005430000000     0.945450000000     0.650850000000     0.148861   
N1       N      0.193490000000     0.377390000000     0.423340000000    -0.186475   
N2       N      0.620030000000     0.341290000000     0.991150000000    -0.225491   
N3       N      0.621500000000     0.332190000000     0.173200000000    -0.185552   
N4       N      0.194790000000     0.368220000000     0.241210000000    -0.225122   
N5       N      0.386560000000     0.567820000000     0.241830000000    -0.186346   
N6       N      0.424240000000     0.141840000000     0.174480000000    -0.225375   
N7       N      0.391570000000     0.568140000000     0.424110000000    -0.186271   
N8       N      0.427860000000     0.142200000000     0.991450000000    -0.22499    
N9       N      0.384010000000     0.369840000000     0.425820000000    -0.186258   
N10      N      0.419710000000     0.332460000000     0.993900000000    -0.22504    
N11      N      0.393960000000     0.377210000000     0.243090000000    -0.185613   
N12      N      0.431210000000     0.341070000000     0.175260000000    -0.225755   
N13      N      0.193490000000     0.377390000000     0.923340000000    -0.186474   
N14      N      0.620030000000     0.341290000000     0.491150000000    -0.225516   
N15      N      0.621500000000     0.332190000000     0.673200000000    -0.185554   
N16      N      0.194790000000     0.368220000000     0.741210000000    -0.225121   
N17      N      0.386560000000     0.567820000000     0.741830000000    -0.186344   
N18      N      0.424240000000     0.141840000000     0.674480000000    -0.225374   
N19      N      0.391570000000     0.568140000000     0.924110000000    -0.186273   
N20      N      0.427860000000     0.142200000000     0.491450000000    -0.225068   
N21      N      0.384010000000     0.369840000000     0.925820000000    -0.186263   
N22      N      0.419710000000     0.332460000000     0.493900000000    -0.225082   
N23      N      0.393960000000     0.377210000000     0.743090000000    -0.1856     
N24      N      0.431210000000     0.341070000000     0.675260000000    -0.225766   
N25      N      0.193490000000     0.877390000000     0.423340000000    -0.186462   
N26      N      0.620030000000     0.841290000000     0.991150000000    -0.22552    
N27      N      0.621500000000     0.832190000000     0.173200000000    -0.185543   
N28      N      0.194790000000     0.868220000000     0.241210000000    -0.225098   
N29      N      0.386560000000     0.067820000000     0.241830000000    -0.186315   
N30      N      0.424240000000     0.641840000000     0.174480000000    -0.225406   
N31      N      0.391570000000     0.068140000000     0.424110000000    -0.186212   
N32      N      0.427860000000     0.642200000000     0.991450000000    -0.224964   
N33      N      0.384010000000     0.869840000000     0.425820000000    -0.186255   
N34      N      0.419710000000     0.832460000000     0.993900000000    -0.22505    
N35      N      0.393960000000     0.877210000000     0.243090000000    -0.185598   
N36      N      0.431210000000     0.841080000000     0.175260000000    -0.225757   
N37      N      0.193490000000     0.877390000000     0.923340000000    -0.186462   
N38      N      0.620030000000     0.841290000000     0.491150000000    -0.225543   
N39      N      0.621500000000     0.832190000000     0.673200000000    -0.185542   
N40      N      0.194790000000     0.868220000000     0.741210000000    -0.225098   
N41      N      0.386560000000     0.067820000000     0.741830000000    -0.186315   
N42      N      0.424240000000     0.641840000000     0.674480000000    -0.225405   
N43      N      0.391570000000     0.068140000000     0.924110000000    -0.186216   
N44      N      0.427860000000     0.642200000000     0.491450000000    -0.225042   
N45      N      0.384010000000     0.869840000000     0.925820000000    -0.186262   
N46      N      0.419710000000     0.832460000000     0.493900000000    -0.225091   
N47      N      0.393960000000     0.877210000000     0.743090000000    -0.185598   
N48      N      0.431210000000     0.841080000000     0.675260000000    -0.225757   
N49      N      0.693490000000     0.377390000000     0.423340000000    -0.186437   
N50      N      0.120030000000     0.341290000000     0.991150000000    -0.225475   
N51      N      0.121500000000     0.332190000000     0.173200000000    -0.185489   
N52      N      0.694790000000     0.368220000000     0.241210000000    -0.225027   
N53      N      0.886560000000     0.567820000000     0.241830000000    -0.186142   
N54      N      0.924240000000     0.141840000000     0.174480000000    -0.22558    
N55      N      0.891570000000     0.568140000000     0.424110000000    -0.186239   
N56      N      0.927860000000     0.142200000000     0.991450000000    -0.224781   
N57      N      0.884010000000     0.369840000000     0.425820000000    -0.186228   
N58      N      0.919710000000     0.332460000000     0.993900000000    -0.224851   
N59      N      0.893960000000     0.377210000000     0.243090000000    -0.18542    
N60      N      0.931210000000     0.341070000000     0.175260000000    -0.225908   
N61      N      0.693490000000     0.377390000000     0.923340000000    -0.186436   
N62      N      0.120030000000     0.341290000000     0.491150000000    -0.2255     
N63      N      0.121500000000     0.332190000000     0.673200000000    -0.18549    
N64      N      0.694790000000     0.368220000000     0.741210000000    -0.225026   
N65      N      0.886560000000     0.567820000000     0.741830000000    -0.18614    
N66      N      0.924240000000     0.141840000000     0.674480000000    -0.225579   
N67      N      0.891570000000     0.568140000000     0.924110000000    -0.186241   
N68      N      0.927860000000     0.142200000000     0.491450000000    -0.224859   
N69      N      0.884010000000     0.369840000000     0.925820000000    -0.186233   
N70      N      0.919710000000     0.332460000000     0.493900000000    -0.224893   
N71      N      0.893960000000     0.377210000000     0.743090000000    -0.185408   
N72      N      0.931210000000     0.341070000000     0.675260000000    -0.225919   
N73      N      0.693490000000     0.877390000000     0.423340000000    -0.186424   
N74      N      0.120030000000     0.841290000000     0.991150000000    -0.225504   
N75      N      0.121500000000     0.832190000000     0.173200000000    -0.185495   
N76      N      0.694790000000     0.868220000000     0.241210000000    -0.225081   
N77      N      0.886560000000     0.067820000000     0.241830000000    -0.186091   
N78      N      0.924240000000     0.641840000000     0.174480000000    -0.225584   
N79      N      0.891570000000     0.068140000000     0.424110000000    -0.186175   
N80      N      0.927860000000     0.642200000000     0.991450000000    -0.224776   
N81      N      0.884010000000     0.869840000000     0.425820000000    -0.186225   
N82      N      0.919710000000     0.832460000000     0.993900000000    -0.224854   
N83      N      0.893960000000     0.877210000000     0.243090000000    -0.185406   
N84      N      0.931210000000     0.841080000000     0.175260000000    -0.225911   
N85      N      0.693490000000     0.877390000000     0.923340000000    -0.186424   
N86      N      0.120030000000     0.841290000000     0.491150000000    -0.225527   
N87      N      0.121500000000     0.832190000000     0.673200000000    -0.185494   
N88      N      0.694790000000     0.868220000000     0.741210000000    -0.225081   
N89      N      0.886560000000     0.067820000000     0.741830000000    -0.186091   
N90      N      0.924240000000     0.641840000000     0.674480000000    -0.225582   
N91      N      0.891570000000     0.068140000000     0.924110000000    -0.186178   
N92      N      0.927860000000     0.642200000000     0.491450000000    -0.224853   
N93      N      0.884010000000     0.869840000000     0.925820000000    -0.186231   
N94      N      0.919710000000     0.832460000000     0.493900000000    -0.224895   
N95      N      0.893960000000     0.877210000000     0.743090000000    -0.185405   
N96      N      0.931210000000     0.841080000000     0.675260000000    -0.22591    
O1       O      0.232750000000     0.362640000000     0.364730000000    -0.499042   
O2       O      0.395160000000     0.444570000000     0.282310000000    -0.505328   
O3       O      0.259520000000     0.444650000000     0.383880000000    -0.505441   
O4       O      0.233540000000     0.422540000000     0.299810000000    -0.499818   
O5       O      0.317170000000     0.368310000000     0.385440000000    -0.505577   
O6       O      0.400220000000     0.529110000000     0.301300000000    -0.497459   
O7       O      0.324190000000     0.438200000000     0.333140000000    -0.869979   
O8       O      0.393730000000     0.502170000000     0.385290000000    -0.506175   
O9       O      0.339030000000     0.529130000000     0.364730000000    -0.496829   
O10      O      0.261120000000     0.367800000000     0.281180000000    -0.494592   
O11      O      0.318490000000     0.501840000000     0.280740000000    -0.50567    
O12      O      0.399440000000     0.422890000000     0.366390000000    -0.496711   
O13      O      0.340180000000     0.362630000000     0.301860000000    -0.494442   
O14      O      0.415560000000     0.286650000000     0.116810000000    -0.501855   
O15      O      0.496120000000     0.207820000000     0.030540000000    -0.508584   
O16      O      0.497940000000     0.341620000000     0.135260000000    -0.49633    
O17      O      0.474780000000     0.347030000000     0.051720000000    -0.49901    
O18      O      0.421600000000     0.207530000000     0.135580000000    -0.50898    
O19      O      0.581270000000     0.286970000000     0.049670000000    -0.501008   
O20      O      0.490680000000     0.271440000000     0.083120000000    -0.874816   
O21      O      0.555520000000     0.264900000000     0.133660000000    -0.504568   
O22      O      0.582170000000     0.346940000000     0.114620000000    -0.49491    
O23      O      0.419170000000     0.265020000000     0.032740000000    -0.495019   
O24      O      0.553650000000     0.341650000000     0.031020000000    -0.49595    
O25      O      0.475880000000     0.180370000000     0.114480000000    -0.486975   
O26      O      0.414560000000     0.180540000000     0.051480000000    -0.484013   
O27      O      0.624200000000     0.426530000000     0.491400000000    -0.286347   
O28      O      0.191260000000     0.283260000000     0.240950000000    -0.286001   
O29      O      0.507920000000     0.142900000000     0.177740000000    -0.286233   
O30      O      0.345140000000     0.143010000000     0.988180000000    -0.283046   
O31      O      0.332760000000     0.253690000000     0.996700000000    -0.288102   
O32      O      0.512130000000     0.426500000000     0.174670000000    -0.286151   
O33      O      0.232750000000     0.362640000000     0.864730000000    -0.499048   
O34      O      0.395160000000     0.444570000000     0.782300000000    -0.505198   
O35      O      0.259520000000     0.444650000000     0.883880000000    -0.505454   
O36      O      0.233540000000     0.422540000000     0.799810000000    -0.499811   
O37      O      0.317170000000     0.368310000000     0.885440000000    -0.505589   
O38      O      0.400220000000     0.529110000000     0.801300000000    -0.497436   
O39      O      0.324190000000     0.438200000000     0.833130000000    -0.86996    
O40      O      0.393730000000     0.502170000000     0.885290000000    -0.506165   
O41      O      0.339030000000     0.529130000000     0.864730000000    -0.496832   
O42      O      0.261120000000     0.367800000000     0.781180000000    -0.494572   
O43      O      0.318490000000     0.501840000000     0.780740000000    -0.505649   
O44      O      0.399440000000     0.422890000000     0.866390000000    -0.496711   
O45      O      0.340180000000     0.362630000000     0.801860000000    -0.494432   
O46      O      0.415560000000     0.286650000000     0.616810000000    -0.501855   
O47      O      0.496120000000     0.207820000000     0.530540000000    -0.508572   
O48      O      0.497940000000     0.341620000000     0.635250000000    -0.496446   
O49      O      0.474780000000     0.347030000000     0.551720000000    -0.499014   
O50      O      0.421600000000     0.207530000000     0.635580000000    -0.508984   
O51      O      0.581270000000     0.286970000000     0.549670000000    -0.501107   
O52      O      0.490680000000     0.271440000000     0.583120000000    -0.874852   
O53      O      0.555520000000     0.264900000000     0.633660000000    -0.504576   
O54      O      0.582170000000     0.346940000000     0.614620000000    -0.494929   
O55      O      0.419170000000     0.265020000000     0.532740000000    -0.49501    
O56      O      0.553650000000     0.341650000000     0.531020000000    -0.496007   
O57      O      0.475880000000     0.180370000000     0.614480000000    -0.486974   
O58      O      0.414560000000     0.180540000000     0.551480000000    -0.484016   
O59      O      0.624200000000     0.426530000000     0.991400000000    -0.286225   
O60      O      0.191260000000     0.283260000000     0.740950000000    -0.285998   
O61      O      0.507920000000     0.142900000000     0.677740000000    -0.286225   
O62      O      0.345140000000     0.143010000000     0.488170000000    -0.283193   
O63      O      0.332760000000     0.253690000000     0.496700000000    -0.288207   
O64      O      0.512130000000     0.426500000000     0.674670000000    -0.286153   
O65      O      0.232750000000     0.862640000000     0.364730000000    -0.499038   
O66      O      0.395160000000     0.944570000000     0.282300000000    -0.505227   
O67      O      0.259520000000     0.944650000000     0.383880000000    -0.505426   
O68      O      0.233540000000     0.922540000000     0.299810000000    -0.49974    
O69      O      0.317170000000     0.868310000000     0.385440000000    -0.505579   
O70      O      0.400220000000     0.029110000000     0.301300000000    -0.497395   
O71      O      0.324190000000     0.938200000000     0.333140000000    -0.870073   
O72      O      0.393740000000     0.002170000000     0.385290000000    -0.505765   
O73      O      0.339030000000     0.029140000000     0.364730000000    -0.496598   
O74      O      0.261120000000     0.867800000000     0.281180000000    -0.494587   
O75      O      0.318490000000     0.001840000000     0.280740000000    -0.505578   
O76      O      0.399440000000     0.922890000000     0.366390000000    -0.496687   
O77      O      0.340180000000     0.862630000000     0.301860000000    -0.494437   
O78      O      0.415560000000     0.786650000000     0.116810000000    -0.501852   
O79      O      0.496120000000     0.707820000000     0.030540000000    -0.508575   
O80      O      0.497940000000     0.841630000000     0.135250000000    -0.496422   
O81      O      0.474770000000     0.847030000000     0.051720000000    -0.498985   
O82      O      0.421600000000     0.707530000000     0.135580000000    -0.509083   
O83      O      0.581270000000     0.786970000000     0.049670000000    -0.500998   
O84      O      0.490680000000     0.771440000000     0.083120000000    -0.874825   
O85      O      0.555530000000     0.764900000000     0.133660000000    -0.504473   
O86      O      0.582170000000     0.846940000000     0.114620000000    -0.495001   
O87      O      0.419170000000     0.765020000000     0.032740000000    -0.495041   
O88      O      0.553650000000     0.841650000000     0.031020000000    -0.495975   
O89      O      0.475880000000     0.680370000000     0.114480000000    -0.486912   
O90      O      0.414560000000     0.680540000000     0.051480000000    -0.484026   
O91      O      0.624200000000     0.926530000000     0.491400000000    -0.286342   
O92      O      0.191260000000     0.783260000000     0.240950000000    -0.286005   
O93      O      0.507920000000     0.642900000000     0.177740000000    -0.286213   
O94      O      0.345140000000     0.643010000000     0.988180000000    -0.282982   
O95      O      0.332760000000     0.753690000000     0.996700000000    -0.288111   
O96      O      0.512130000000     0.926510000000     0.174670000000    -0.286241   
O97      O      0.232750000000     0.862640000000     0.864730000000    -0.499046   
O98      O      0.395160000000     0.944570000000     0.782300000000    -0.505209   
O99      O      0.259520000000     0.944650000000     0.883880000000    -0.50544    
O100     O      0.233540000000     0.922540000000     0.799810000000    -0.499733   
O101     O      0.317170000000     0.868310000000     0.885440000000    -0.505593   
O102     O      0.400220000000     0.029110000000     0.801300000000    -0.497387   
O103     O      0.324190000000     0.938200000000     0.833130000000    -0.870073   
O104     O      0.393740000000     0.002170000000     0.885290000000    -0.505779   
O105     O      0.339030000000     0.029140000000     0.864730000000    -0.496607   
O106     O      0.261120000000     0.867800000000     0.781180000000    -0.494569   
O107     O      0.318490000000     0.001840000000     0.780740000000    -0.505561   
O108     O      0.399440000000     0.922890000000     0.866390000000    -0.496696   
O109     O      0.340180000000     0.862630000000     0.801860000000    -0.494429   
O110     O      0.415560000000     0.786650000000     0.616810000000    -0.50185    
O111     O      0.496120000000     0.707820000000     0.530540000000    -0.508562   
O112     O      0.497940000000     0.841630000000     0.635250000000    -0.496424   
O113     O      0.474770000000     0.847030000000     0.551720000000    -0.498979   
O114     O      0.421600000000     0.707530000000     0.635580000000    -0.509085   
O115     O      0.581270000000     0.786970000000     0.549670000000    -0.501092   
O116     O      0.490680000000     0.771440000000     0.583120000000    -0.874843   
O117     O      0.555530000000     0.764900000000     0.633660000000    -0.504477   
O118     O      0.582170000000     0.846940000000     0.614620000000    -0.495006   
O119     O      0.419170000000     0.765020000000     0.532740000000    -0.49503    
O120     O      0.553650000000     0.841650000000     0.531020000000    -0.496007   
O121     O      0.475880000000     0.680370000000     0.614480000000    -0.48691    
O122     O      0.414560000000     0.680540000000     0.551480000000    -0.484028   
O123     O      0.624200000000     0.926530000000     0.991400000000    -0.286221   
O124     O      0.191260000000     0.783260000000     0.740950000000    -0.286002   
O125     O      0.507920000000     0.642900000000     0.677740000000    -0.286205   
O126     O      0.345140000000     0.643010000000     0.488170000000    -0.283129   
O127     O      0.332760000000     0.753690000000     0.496700000000    -0.288216   
O128     O      0.512130000000     0.926510000000     0.674670000000    -0.28624    
O129     O      0.732750000000     0.362640000000     0.364730000000    -0.498948   
O130     O      0.895160000000     0.444570000000     0.282310000000    -0.505204   
O131     O      0.759520000000     0.444650000000     0.383880000000    -0.5054     
O132     O      0.733540000000     0.422540000000     0.299810000000    -0.499597   
O133     O      0.817170000000     0.368310000000     0.385440000000    -0.505568   
O134     O      0.900220000000     0.529110000000     0.301300000000    -0.497275   
O135     O      0.824190000000     0.438200000000     0.333140000000    -0.870245   
O136     O      0.893730000000     0.502170000000     0.385290000000    -0.5061     
O137     O      0.839030000000     0.529130000000     0.364730000000    -0.49682    
O138     O      0.761130000000     0.367800000000     0.281180000000    -0.494479   
O139     O      0.818490000000     0.501840000000     0.280740000000    -0.505685   
O140     O      0.899440000000     0.422890000000     0.366390000000    -0.496542   
O141     O      0.840180000000     0.362630000000     0.301860000000    -0.494374   
O142     O      0.915560000000     0.286650000000     0.116810000000    -0.501444   
O143     O      0.996120000000     0.207820000000     0.030540000000    -0.506137   
O144     O      0.997940000000     0.341620000000     0.135260000000    -0.493638   
O145     O      0.974770000000     0.347030000000     0.051720000000    -0.496876   
O146     O      0.921600000000     0.207530000000     0.135580000000    -0.508538   
O147     O      0.081270000000     0.286970000000     0.049670000000    -0.500433   
O148     O      0.990680000000     0.271440000000     0.083120000000    -0.870814   
O149     O      0.055530000000     0.264900000000     0.133660000000    -0.504348   
O150     O      0.082170000000     0.346940000000     0.114620000000    -0.494279   
O151     O      0.919170000000     0.265020000000     0.032740000000    -0.494547   
O152     O      0.053650000000     0.341650000000     0.031020000000    -0.495912   
O153     O      0.975880000000     0.180370000000     0.114480000000    -0.484746   
O154     O      0.914560000000     0.180540000000     0.051480000000    -0.483575   
O155     O      0.124200000000     0.426530000000     0.491400000000    -0.286853   
O156     O      0.691260000000     0.283260000000     0.240950000000    -0.285951   
O157     O      0.007920000000     0.142900000000     0.177740000000    -0.289023   
O158     O      0.845140000000     0.143010000000     0.988180000000    -0.282989   
O159     O      0.832760000000     0.253690000000     0.996700000000    -0.288014   
O160     O      0.012130000000     0.426500000000     0.174670000000    -0.288753   
O161     O      0.732750000000     0.362640000000     0.864730000000    -0.498953   
O162     O      0.895160000000     0.444570000000     0.782300000000    -0.505074   
O163     O      0.759520000000     0.444650000000     0.883880000000    -0.505413   
O164     O      0.733540000000     0.422540000000     0.799810000000    -0.49959    
O165     O      0.817170000000     0.368310000000     0.885440000000    -0.505579   
O166     O      0.900220000000     0.529110000000     0.801300000000    -0.497252   
O167     O      0.824190000000     0.438200000000     0.833130000000    -0.870226   
O168     O      0.893730000000     0.502170000000     0.885290000000    -0.50609    
O169     O      0.839030000000     0.529130000000     0.864730000000    -0.496823   
O170     O      0.761130000000     0.367800000000     0.781180000000    -0.494459   
O171     O      0.818490000000     0.501840000000     0.780740000000    -0.505664   
O172     O      0.899440000000     0.422890000000     0.866390000000    -0.496542   
O173     O      0.840180000000     0.362630000000     0.801860000000    -0.494364   
O174     O      0.915560000000     0.286650000000     0.616810000000    -0.501444   
O175     O      0.996120000000     0.207820000000     0.530540000000    -0.506125   
O176     O      0.997940000000     0.341620000000     0.635250000000    -0.493753   
O177     O      0.974770000000     0.347030000000     0.551720000000    -0.496879   
O178     O      0.921600000000     0.207530000000     0.635580000000    -0.508542   
O179     O      0.081270000000     0.286970000000     0.549670000000    -0.500532   
O180     O      0.990680000000     0.271440000000     0.583120000000    -0.87085    
O181     O      0.055530000000     0.264900000000     0.633660000000    -0.504355   
O182     O      0.082170000000     0.346940000000     0.614620000000    -0.494299   
O183     O      0.919170000000     0.265020000000     0.532740000000    -0.494538   
O184     O      0.053650000000     0.341650000000     0.531020000000    -0.495969   
O185     O      0.975880000000     0.180370000000     0.614480000000    -0.484745   
O186     O      0.914560000000     0.180540000000     0.551480000000    -0.483579   
O187     O      0.124200000000     0.426530000000     0.991400000000    -0.286732   
O188     O      0.691260000000     0.283260000000     0.740950000000    -0.285948   
O189     O      0.007920000000     0.142900000000     0.677740000000    -0.289015   
O190     O      0.845140000000     0.143010000000     0.488170000000    -0.283136   
O191     O      0.832760000000     0.253690000000     0.496700000000    -0.288119   
O192     O      0.012130000000     0.426500000000     0.674670000000    -0.288755   
O193     O      0.732750000000     0.862640000000     0.364730000000    -0.498933   
O194     O      0.895160000000     0.944570000000     0.282300000000    -0.505101   
O195     O      0.759520000000     0.944650000000     0.383880000000    -0.505401   
O196     O      0.733540000000     0.922540000000     0.299810000000    -0.499627   
O197     O      0.817170000000     0.868310000000     0.385440000000    -0.505562   
O198     O      0.900220000000     0.029110000000     0.301300000000    -0.497195   
O199     O      0.824190000000     0.938200000000     0.333140000000    -0.87018    
O200     O      0.893740000000     0.002170000000     0.385290000000    -0.505678   
O201     O      0.839030000000     0.029140000000     0.364730000000    -0.496535   
O202     O      0.761120000000     0.867800000000     0.281180000000    -0.494578   
O203     O      0.818490000000     0.001840000000     0.280740000000    -0.50555    
O204     O      0.899440000000     0.922890000000     0.366390000000    -0.496517   
O205     O      0.840180000000     0.862630000000     0.301860000000    -0.494371   
O206     O      0.915560000000     0.786650000000     0.116810000000    -0.501447   
O207     O      0.996120000000     0.707820000000     0.030540000000    -0.506137   
O208     O      0.997940000000     0.841630000000     0.135250000000    -0.49374    
O209     O      0.974770000000     0.847030000000     0.051720000000    -0.496885   
O210     O      0.921600000000     0.707530000000     0.135580000000    -0.508549   
O211     O      0.081270000000     0.786970000000     0.049670000000    -0.500437   
O212     O      0.990680000000     0.771440000000     0.083120000000    -0.870832   
O213     O      0.055530000000     0.764900000000     0.133660000000    -0.504273   
O214     O      0.082170000000     0.846940000000     0.114620000000    -0.494379   
O215     O      0.919170000000     0.765020000000     0.032740000000    -0.494549   
O216     O      0.053650000000     0.841650000000     0.031020000000    -0.495936   
O217     O      0.975880000000     0.680370000000     0.114480000000    -0.484756   
O218     O      0.914560000000     0.680540000000     0.051480000000    -0.483585   
O219     O      0.124200000000     0.926530000000     0.491400000000    -0.286847   
O220     O      0.691250000000     0.783260000000     0.240950000000    -0.286066   
O221     O      0.007920000000     0.642900000000     0.177740000000    -0.289041   
O222     O      0.845140000000     0.643010000000     0.988180000000    -0.282923   
O223     O      0.832760000000     0.753690000000     0.996700000000    -0.288023   
O224     O      0.012130000000     0.926510000000     0.174670000000    -0.288841   
O225     O      0.732750000000     0.862640000000     0.864730000000    -0.49894    
O226     O      0.895160000000     0.944570000000     0.782300000000    -0.505083   
O227     O      0.759520000000     0.944650000000     0.883880000000    -0.505415   
O228     O      0.733540000000     0.922540000000     0.799810000000    -0.49962    
O229     O      0.817170000000     0.868310000000     0.885440000000    -0.505576   
O230     O      0.900220000000     0.029110000000     0.801300000000    -0.497187   
O231     O      0.824190000000     0.938200000000     0.833130000000    -0.87018    
O232     O      0.893740000000     0.002170000000     0.885290000000    -0.505692   
O233     O      0.839030000000     0.029140000000     0.864730000000    -0.496544   
O234     O      0.761120000000     0.867800000000     0.781180000000    -0.49456    
O235     O      0.818490000000     0.001840000000     0.780740000000    -0.505533   
O236     O      0.899440000000     0.922890000000     0.866390000000    -0.496526   
O237     O      0.840180000000     0.862630000000     0.801860000000    -0.494364   
O238     O      0.915560000000     0.786650000000     0.616810000000    -0.501444   
O239     O      0.996120000000     0.707820000000     0.530540000000    -0.506124   
O240     O      0.997940000000     0.841630000000     0.635250000000    -0.493742   
O241     O      0.974770000000     0.847030000000     0.551720000000    -0.496879   
O242     O      0.921600000000     0.707530000000     0.635580000000    -0.508551   
O243     O      0.081270000000     0.786970000000     0.549670000000    -0.500531   
O244     O      0.990680000000     0.771440000000     0.583120000000    -0.87085    
O245     O      0.055530000000     0.764900000000     0.633660000000    -0.504277   
O246     O      0.082170000000     0.846940000000     0.614620000000    -0.494384   
O247     O      0.919170000000     0.765020000000     0.532740000000    -0.494538   
O248     O      0.053650000000     0.841650000000     0.531020000000    -0.495968   
O249     O      0.975880000000     0.680370000000     0.614480000000    -0.484754   
O250     O      0.914560000000     0.680540000000     0.551480000000    -0.483587   
O251     O      0.124200000000     0.926530000000     0.991400000000    -0.286725   
O252     O      0.691250000000     0.783260000000     0.740950000000    -0.286063   
O253     O      0.007920000000     0.642900000000     0.677740000000    -0.289033   
O254     O      0.845140000000     0.643010000000     0.488170000000    -0.283069   
O255     O      0.832760000000     0.753690000000     0.496700000000    -0.288127   
O256     O      0.012130000000     0.926510000000     0.674670000000    -0.28884    


