data_structure

_audit_creation_method RASPA-1.0
_audit_creation_date 2023-6-4
_audit_author_name 'Poobodin Mano'

_cell_length_a    28.7102
_cell_length_b    28.3497
_cell_length_c    31.2438
_cell_angle_alpha 90
_cell_angle_beta  90
_cell_angle_gamma 120
_cell_volume      22023.1

_symmetry_cell_setting          triclinic
_symmetry_space_group_name_Hall 'P 1'
_symmetry_space_group_name_H-M  'P 1'
_symmetry_Int_Tables_number     1

_symmetry_equiv_pos_as_xyz 'x,y,z'

loop_
_atom_site_label
_atom_site_type_symbol
_atom_site_fract_x
_atom_site_fract_y
_atom_site_fract_z
_atom_site_charge
C1       C      0.370990000000     0.394740000000     0.267250000000     0.529839   
C2       C      0.366970000000     0.387380000000     0.382950000000     0.531462   
C3       C      0.229650000000     0.393970000000     0.385740000000     0.529108   
C4       C      0.363160000000     0.532190000000     0.269010000000     0.529379   
C5       C      0.371960000000     0.531920000000     0.384650000000     0.52981    
C6       C      0.226700000000     0.386000000000     0.270560000000     0.531499   
C7       C      0.447290000000     0.325970000000     0.132290000000     0.529103   
C8       C      0.443390000000     0.317490000000     0.016640000000     0.533283   
C9       C      0.446870000000     0.177310000000     0.020060000000     0.530185   
C10      C      0.581930000000     0.316100000000     0.136270000000     0.531012   
C11      C      0.584670000000     0.320760000000     0.020130000000     0.530409   
C12      C      0.435810000000     0.178180000000     0.134450000000     0.533154   
C13      C      0.178570000000     0.408700000000     0.438330000000     0.0350248  
C14      C      0.174030000000     0.323520000000     0.434180000000     0.0230627  
C15      C      0.640910000000     0.389230000000     0.971350000000     0.0358221  
C16      C      0.638510000000     0.304600000000     0.969040000000     0.0733189  
C17      C      0.173200000000     0.319270000000     0.218860000000     0.0350977  
C18      C      0.671490000000     0.401410000000     0.222880000000     0.0236333  
C19      C      0.135290000000     0.301430000000     0.185990000000     0.0350825  
C20      C      0.636040000000     0.385290000000     0.188080000000     0.073522   
C21      C      0.432590000000     0.591640000000     0.221780000000     0.0360952  
C22      C      0.346000000000     0.581030000000     0.215450000000     0.0212095  
C23      C      0.449820000000     0.126890000000     0.186810000000     0.0366638  
C24      C      0.363780000000     0.118730000000     0.181840000000     0.0744928  
C25      C      0.459850000000     0.123830000000     0.467850000000     0.0350529  
C26      C      0.377160000000     0.122320000000     0.971550000000     0.0235738  
C27      C      0.439770000000     0.585840000000     0.434620000000     0.0351511  
C28      C      0.357760000000     0.586660000000     0.936630000000     0.0735815  
C29      C      0.354150000000     0.321860000000     0.435850000000     0.0345958  
C30      C      0.438570000000     0.401730000000     0.429020000000     0.0234447  
C31      C      0.374530000000     0.303890000000     0.968510000000     0.035687   
C32      C      0.458430000000     0.385500000000     0.463520000000     0.0734806  
C33      C      0.460110000000     0.391670000000     0.185300000000     0.0348671  
C34      C      0.376250000000     0.311140000000     0.179130000000     0.0236259  
C35      C      0.439710000000     0.409240000000     0.218360000000     0.0356201  
C36      C      0.356540000000     0.326810000000     0.214090000000     0.0728924  
C37      C      0.370990000000     0.394740000000     0.767250000000     0.529838   
C38      C      0.366970000000     0.387380000000     0.882950000000     0.531381   
C39      C      0.229650000000     0.393970000000     0.885740000000     0.529109   
C40      C      0.363160000000     0.532190000000     0.769000000000     0.529287   
C41      C      0.371960000000     0.531920000000     0.884650000000     0.529807   
C42      C      0.226700000000     0.386000000000     0.770560000000     0.531498   
C43      C      0.447290000000     0.325970000000     0.632300000000     0.529012   
C44      C      0.443390000000     0.317490000000     0.516640000000     0.533326   
C45      C      0.446870000000     0.177310000000     0.520060000000     0.530149   
C46      C      0.581930000000     0.316100000000     0.636270000000     0.531017   
C47      C      0.584670000000     0.320760000000     0.520130000000     0.530318   
C48      C      0.435810000000     0.178180000000     0.634460000000     0.533072   
C49      C      0.178570000000     0.408700000000     0.938330000000     0.0350264  
C50      C      0.174030000000     0.323520000000     0.934180000000     0.0230646  
C51      C      0.640910000000     0.389230000000     0.471350000000     0.0358154  
C52      C      0.638510000000     0.304600000000     0.469040000000     0.0733136  
C53      C      0.173200000000     0.319270000000     0.718860000000     0.0350978  
C54      C      0.671490000000     0.401410000000     0.722880000000     0.0236326  
C55      C      0.135290000000     0.301430000000     0.685990000000     0.0350837  
C56      C      0.636040000000     0.385290000000     0.688080000000     0.0735224  
C57      C      0.432590000000     0.591640000000     0.721780000000     0.0361031  
C58      C      0.346000000000     0.581030000000     0.715450000000     0.0212159  
C59      C      0.449820000000     0.126890000000     0.686810000000     0.036667   
C60      C      0.363780000000     0.118730000000     0.681840000000     0.0744993  
C61      C      0.459850000000     0.123830000000     0.967850000000     0.0350555  
C62      C      0.377160000000     0.122320000000     0.471550000000     0.0235649  
C63      C      0.439770000000     0.585840000000     0.934620000000     0.0351538  
C64      C      0.357760000000     0.586660000000     0.436630000000     0.0735834  
C65      C      0.354150000000     0.321860000000     0.935850000000     0.034603   
C66      C      0.438570000000     0.401730000000     0.929020000000     0.0234421  
C67      C      0.374530000000     0.303890000000     0.468510000000     0.0356841  
C68      C      0.458430000000     0.385500000000     0.963520000000     0.0734807  
C69      C      0.460110000000     0.391670000000     0.685300000000     0.0348761  
C70      C      0.376250000000     0.311140000000     0.679130000000     0.0236351  
C71      C      0.439710000000     0.409240000000     0.718360000000     0.0356174  
C72      C      0.356540000000     0.326810000000     0.714090000000     0.0728909  
C73      C      0.370990000000     0.894740000000     0.267250000000     0.529827   
C74      C      0.366970000000     0.887390000000     0.382950000000     0.531511   
C75      C      0.229650000000     0.893970000000     0.385740000000     0.529092   
C76      C      0.363160000000     0.032200000000     0.269010000000     0.529254   
C77      C      0.371960000000     0.031920000000     0.384650000000     0.529753   
C78      C      0.226700000000     0.886000000000     0.270560000000     0.531466   
C79      C      0.447290000000     0.825970000000     0.132290000000     0.528908   
C80      C      0.443390000000     0.817490000000     0.016640000000     0.53329    
C81      C      0.446870000000     0.677310000000     0.020060000000     0.530184   
C82      C      0.581930000000     0.816100000000     0.136270000000     0.531018   
C83      C      0.584670000000     0.820760000000     0.020130000000     0.530223   
C84      C      0.435810000000     0.678180000000     0.134450000000     0.533272   
C85      C      0.178570000000     0.908700000000     0.438330000000     0.0350125  
C86      C      0.174030000000     0.823520000000     0.434180000000     0.0230557  
C87      C      0.640910000000     0.889230000000     0.971350000000     0.0358221  
C88      C      0.638510000000     0.804600000000     0.969040000000     0.0733169  
C89      C      0.173200000000     0.819270000000     0.218860000000     0.0350901  
C90      C      0.671490000000     0.901410000000     0.222880000000     0.0236214  
C91      C      0.135290000000     0.801430000000     0.185990000000     0.0350805  
C92      C      0.636040000000     0.885290000000     0.188080000000     0.0735113  
C93      C      0.432590000000     0.091630000000     0.221780000000     0.036076   
C94      C      0.346000000000     0.081030000000     0.215450000000     0.0212234  
C95      C      0.449820000000     0.626880000000     0.186810000000     0.0365811  
C96      C      0.363780000000     0.618730000000     0.181840000000     0.0744887  
C97      C      0.459850000000     0.623830000000     0.467850000000     0.0350391  
C98      C      0.377160000000     0.622320000000     0.971550000000     0.0235569  
C99      C      0.439770000000     0.085840000000     0.434620000000     0.035161   
C100     C      0.357760000000     0.086660000000     0.936630000000     0.0735764  
C101     C      0.354150000000     0.821850000000     0.435850000000     0.0345397  
C102     C      0.438570000000     0.901730000000     0.429020000000     0.0234166  
C103     C      0.374530000000     0.803890000000     0.968510000000     0.035705   
C104     C      0.458430000000     0.885500000000     0.463520000000     0.0734855  
C105     C      0.460110000000     0.891670000000     0.185300000000     0.0348492  
C106     C      0.376250000000     0.811140000000     0.179130000000     0.023616   
C107     C      0.439710000000     0.909250000000     0.218360000000     0.0356041  
C108     C      0.356540000000     0.826810000000     0.214090000000     0.0728907  
C109     C      0.370990000000     0.894740000000     0.767250000000     0.529825   
C110     C      0.366970000000     0.887390000000     0.882950000000     0.53143    
C111     C      0.229650000000     0.893970000000     0.885740000000     0.529092   
C112     C      0.363160000000     0.032200000000     0.769000000000     0.529163   
C113     C      0.371960000000     0.031920000000     0.884650000000     0.529751   
C114     C      0.226700000000     0.886000000000     0.770560000000     0.531464   
C115     C      0.447290000000     0.825970000000     0.632300000000     0.528817   
C116     C      0.443390000000     0.817490000000     0.516640000000     0.533333   
C117     C      0.446870000000     0.677310000000     0.520060000000     0.530148   
C118     C      0.581930000000     0.816100000000     0.636270000000     0.531023   
C119     C      0.584670000000     0.820760000000     0.520130000000     0.530133   
C120     C      0.435810000000     0.678180000000     0.634460000000     0.53319    
C121     C      0.178570000000     0.908700000000     0.938330000000     0.0350141  
C122     C      0.174030000000     0.823520000000     0.934180000000     0.0230576  
C123     C      0.640910000000     0.889230000000     0.471350000000     0.0358154  
C124     C      0.638510000000     0.804600000000     0.469040000000     0.0733116  
C125     C      0.173200000000     0.819270000000     0.718860000000     0.0350902  
C126     C      0.671490000000     0.901410000000     0.722880000000     0.0236208  
C127     C      0.135290000000     0.801430000000     0.685990000000     0.0350817  
C128     C      0.636040000000     0.885290000000     0.688080000000     0.0735118  
C129     C      0.432590000000     0.091630000000     0.721780000000     0.0360838  
C130     C      0.346000000000     0.081030000000     0.715450000000     0.0212298  
C131     C      0.449820000000     0.626880000000     0.686810000000     0.0365843  
C132     C      0.363780000000     0.618730000000     0.681840000000     0.0744952  
C133     C      0.459850000000     0.623830000000     0.967850000000     0.0350417  
C134     C      0.377160000000     0.622320000000     0.471550000000     0.023548   
C135     C      0.439770000000     0.085840000000     0.934620000000     0.0351637  
C136     C      0.357760000000     0.086660000000     0.436630000000     0.0735783  
C137     C      0.354150000000     0.821850000000     0.935850000000     0.0345469  
C138     C      0.438570000000     0.901730000000     0.929020000000     0.0234141  
C139     C      0.374530000000     0.803890000000     0.468510000000     0.0357021  
C140     C      0.458430000000     0.885500000000     0.963520000000     0.0734856  
C141     C      0.460110000000     0.891670000000     0.685300000000     0.0348583  
C142     C      0.376250000000     0.811140000000     0.679130000000     0.0236252  
C143     C      0.439710000000     0.909250000000     0.718360000000     0.0356013  
C144     C      0.356540000000     0.826810000000     0.714090000000     0.0728893  
C145     C      0.870990000000     0.394740000000     0.267250000000     0.529875   
C146     C      0.866970000000     0.387380000000     0.382950000000     0.531515   
C147     C      0.729650000000     0.393970000000     0.385740000000     0.529179   
C148     C      0.863160000000     0.532190000000     0.269010000000     0.529412   
C149     C      0.871960000000     0.531920000000     0.384650000000     0.529839   
C150     C      0.726700000000     0.386000000000     0.270560000000     0.531578   
C151     C      0.947290000000     0.325970000000     0.132290000000     0.528673   
C152     C      0.943390000000     0.317490000000     0.016640000000     0.533094   
C153     C      0.946870000000     0.177310000000     0.020060000000     0.52979    
C154     C      0.081930000000     0.316100000000     0.136270000000     0.529987   
C155     C      0.084670000000     0.320760000000     0.020130000000     0.529366   
C156     C      0.935810000000     0.178180000000     0.134450000000     0.532605   
C157     C      0.678580000000     0.408700000000     0.438330000000     0.0351622  
C158     C      0.674030000000     0.323520000000     0.434180000000     0.0232366  
C159     C      0.140910000000     0.389230000000     0.971350000000     0.0356014  
C160     C      0.138510000000     0.304600000000     0.969040000000     0.073212   
C161     C      0.673200000000     0.319270000000     0.218860000000     0.0352579  
C162     C      0.171490000000     0.401410000000     0.222880000000     0.0234479  
C163     C      0.635290000000     0.301430000000     0.185990000000     0.0353502  
C164     C      0.136040000000     0.385290000000     0.188080000000     0.0734093  
C165     C      0.932580000000     0.591640000000     0.221780000000     0.0364233  
C166     C      0.846000000000     0.581030000000     0.215450000000     0.0213151  
C167     C      0.949820000000     0.126890000000     0.186810000000     0.0368588  
C168     C      0.863780000000     0.118730000000     0.181840000000     0.0745474  
C169     C      0.959840000000     0.123830000000     0.467850000000     0.0397844  
C170     C      0.877160000000     0.122320000000     0.971550000000     0.0238466  
C171     C      0.939770000000     0.585840000000     0.434620000000     0.0337941  
C172     C      0.857760000000     0.586660000000     0.936630000000     0.073491   
C173     C      0.854150000000     0.321860000000     0.435850000000     0.0345915  
C174     C      0.938570000000     0.401730000000     0.429020000000     0.0228283  
C175     C      0.874530000000     0.303890000000     0.968510000000     0.0359081  
C176     C      0.958430000000     0.385500000000     0.463520000000     0.0766129  
C177     C      0.960110000000     0.391670000000     0.185300000000     0.0395166  
C178     C      0.876250000000     0.311140000000     0.179130000000     0.0238957  
C179     C      0.939710000000     0.409240000000     0.218360000000     0.0342971  
C180     C      0.856540000000     0.326810000000     0.214090000000     0.0727946  
C181     C      0.870990000000     0.394740000000     0.767250000000     0.529874   
C182     C      0.866970000000     0.387380000000     0.882950000000     0.531434   
C183     C      0.729650000000     0.393970000000     0.885740000000     0.529179   
C184     C      0.863160000000     0.532190000000     0.769000000000     0.52932    
C185     C      0.871960000000     0.531920000000     0.884650000000     0.529837   
C186     C      0.726700000000     0.386000000000     0.770560000000     0.531576   
C187     C      0.947290000000     0.325970000000     0.632300000000     0.528582   
C188     C      0.943390000000     0.317490000000     0.516640000000     0.533137   
C189     C      0.946870000000     0.177310000000     0.520060000000     0.529754   
C190     C      0.081930000000     0.316100000000     0.636270000000     0.529991   
C191     C      0.084670000000     0.320760000000     0.520130000000     0.529276   
C192     C      0.935810000000     0.178180000000     0.634460000000     0.532523   
C193     C      0.678580000000     0.408700000000     0.938330000000     0.0351638  
C194     C      0.674030000000     0.323520000000     0.934180000000     0.0232385  
C195     C      0.140910000000     0.389230000000     0.471350000000     0.0355947  
C196     C      0.138510000000     0.304600000000     0.469040000000     0.0732067  
C197     C      0.673200000000     0.319270000000     0.718860000000     0.0352579  
C198     C      0.171490000000     0.401410000000     0.722880000000     0.0234472  
C199     C      0.635290000000     0.301430000000     0.685990000000     0.0353514  
C200     C      0.136040000000     0.385290000000     0.688080000000     0.0734097  
C201     C      0.932580000000     0.591640000000     0.721780000000     0.0364311  
C202     C      0.846000000000     0.581030000000     0.715450000000     0.0213214  
C203     C      0.949820000000     0.126890000000     0.686810000000     0.036862   
C204     C      0.863780000000     0.118730000000     0.681840000000     0.0745539  
C205     C      0.959840000000     0.123830000000     0.967850000000     0.0397862  
C206     C      0.877160000000     0.122320000000     0.471550000000     0.0238381  
C207     C      0.939770000000     0.585840000000     0.934620000000     0.0337971  
C208     C      0.857760000000     0.586660000000     0.436630000000     0.0734928  
C209     C      0.854150000000     0.321860000000     0.935850000000     0.0345987  
C210     C      0.938570000000     0.401730000000     0.929020000000     0.0228258  
C211     C      0.874530000000     0.303890000000     0.468510000000     0.0359052  
C212     C      0.958430000000     0.385500000000     0.963520000000     0.0766127  
C213     C      0.960110000000     0.391670000000     0.685300000000     0.0395256  
C214     C      0.876250000000     0.311140000000     0.679130000000     0.0239048  
C215     C      0.939710000000     0.409240000000     0.718360000000     0.0342944  
C216     C      0.856540000000     0.326810000000     0.714090000000     0.0727931  
C217     C      0.870990000000     0.894740000000     0.267250000000     0.529863   
C218     C      0.866970000000     0.887390000000     0.382950000000     0.531515   
C219     C      0.729650000000     0.893970000000     0.385740000000     0.529168   
C220     C      0.863160000000     0.032200000000     0.269010000000     0.529316   
C221     C      0.871960000000     0.031920000000     0.384650000000     0.529956   
C222     C      0.726700000000     0.886000000000     0.270560000000     0.53155    
C223     C      0.947290000000     0.825970000000     0.132290000000     0.528564   
C224     C      0.943390000000     0.817490000000     0.016640000000     0.533064   
C225     C      0.946870000000     0.677310000000     0.020060000000     0.529774   
C226     C      0.081930000000     0.816100000000     0.136270000000     0.529994   
C227     C      0.084670000000     0.820760000000     0.020130000000     0.529367   
C228     C      0.935800000000     0.678180000000     0.134450000000     0.532714   
C229     C      0.678570000000     0.908700000000     0.438330000000     0.0351038  
C230     C      0.674030000000     0.823520000000     0.434180000000     0.023229   
C231     C      0.140910000000     0.889230000000     0.971350000000     0.0355919  
C232     C      0.138510000000     0.804600000000     0.969040000000     0.0732118  
C233     C      0.673200000000     0.819270000000     0.218860000000     0.0352464  
C234     C      0.171490000000     0.901410000000     0.222880000000     0.0234341  
C235     C      0.635290000000     0.801430000000     0.185990000000     0.0353564  
C236     C      0.136040000000     0.885290000000     0.188080000000     0.0734071  
C237     C      0.932590000000     0.091630000000     0.221780000000     0.0363448  
C238     C      0.846000000000     0.081030000000     0.215450000000     0.0213228  
C239     C      0.949820000000     0.626880000000     0.186810000000     0.0367665  
C240     C      0.863780000000     0.618730000000     0.181840000000     0.0745292  
C241     C      0.959840000000     0.623830000000     0.467850000000     0.0397717  
C242     C      0.877160000000     0.622320000000     0.971550000000     0.0238303  
C243     C      0.939770000000     0.085840000000     0.434620000000     0.0338124  
C244     C      0.857760000000     0.086660000000     0.936630000000     0.0734908  
C245     C      0.854150000000     0.821850000000     0.435850000000     0.0345335  
C246     C      0.938570000000     0.901730000000     0.429020000000     0.022798   
C247     C      0.874530000000     0.803890000000     0.968510000000     0.0359248  
C248     C      0.958430000000     0.885500000000     0.463520000000     0.0766138  
C249     C      0.960110000000     0.891670000000     0.185300000000     0.0395331  
C250     C      0.876250000000     0.811140000000     0.179130000000     0.0238584  
C251     C      0.939710000000     0.909250000000     0.218360000000     0.0342671  
C252     C      0.856540000000     0.826810000000     0.214090000000     0.0728017  
C253     C      0.870990000000     0.894740000000     0.767250000000     0.529862   
C254     C      0.866970000000     0.887390000000     0.882950000000     0.531434   
C255     C      0.729650000000     0.893970000000     0.885740000000     0.529168   
C256     C      0.863160000000     0.032200000000     0.769000000000     0.529224   
C257     C      0.871960000000     0.031920000000     0.884650000000     0.529953   
C258     C      0.726700000000     0.886000000000     0.770560000000     0.531548   
C259     C      0.947290000000     0.825970000000     0.632300000000     0.528474   
C260     C      0.943390000000     0.817490000000     0.516640000000     0.533107   
C261     C      0.946870000000     0.677310000000     0.520060000000     0.529738   
C262     C      0.081930000000     0.816100000000     0.636270000000     0.529999   
C263     C      0.084670000000     0.820760000000     0.520130000000     0.529277   
C264     C      0.935800000000     0.678180000000     0.634460000000     0.532632   
C265     C      0.678570000000     0.908700000000     0.938330000000     0.0351054  
C266     C      0.674030000000     0.823520000000     0.934180000000     0.0232309  
C267     C      0.140910000000     0.889230000000     0.471350000000     0.0355851  
C268     C      0.138510000000     0.804600000000     0.469040000000     0.0732065  
C269     C      0.673200000000     0.819270000000     0.718860000000     0.0352464  
C270     C      0.171490000000     0.901410000000     0.722880000000     0.0234334  
C271     C      0.635290000000     0.801430000000     0.685990000000     0.0353576  
C272     C      0.136040000000     0.885290000000     0.688080000000     0.0734075  
C273     C      0.932590000000     0.091630000000     0.721780000000     0.0363527  
C274     C      0.846000000000     0.081030000000     0.715450000000     0.0213291  
C275     C      0.949820000000     0.626880000000     0.686810000000     0.0367697  
C276     C      0.863780000000     0.618730000000     0.681840000000     0.0745357  
C277     C      0.959840000000     0.623830000000     0.967850000000     0.0397736  
C278     C      0.877160000000     0.622320000000     0.471550000000     0.0238217  
C279     C      0.939770000000     0.085840000000     0.934620000000     0.0338153  
C280     C      0.857760000000     0.086660000000     0.436630000000     0.0734926  
C281     C      0.854150000000     0.821850000000     0.935850000000     0.0345407  
C282     C      0.938570000000     0.901730000000     0.929020000000     0.0227955  
C283     C      0.874530000000     0.803890000000     0.468510000000     0.035922   
C284     C      0.958430000000     0.885500000000     0.963520000000     0.0766136  
C285     C      0.960110000000     0.891670000000     0.685300000000     0.0395421  
C286     C      0.876250000000     0.811140000000     0.679130000000     0.0238675  
C287     C      0.939710000000     0.909250000000     0.718360000000     0.0342644  
C288     C      0.856540000000     0.826810000000     0.714090000000     0.0728002  
Fe1      Fe     0.288480000000     0.369460000000     0.326800000000     1.35884    
Fe2      Fe     0.287870000000     0.471480000000     0.327340000000     1.362      
Fe3      Fe     0.389080000000     0.472300000000     0.325880000000     1.35686    
Fe4      Fe     0.423120000000     0.240070000000     0.075630000000     1.36602    
Fe5      Fe     0.522850000000     0.237650000000     0.078590000000     1.35611    
Fe6      Fe     0.525090000000     0.341050000000     0.076190000000     1.35676    
Fe7      Fe     0.288480000000     0.369460000000     0.826800000000     1.35883    
Fe8      Fe     0.287870000000     0.471480000000     0.827340000000     1.362      
Fe9      Fe     0.389080000000     0.472300000000     0.825880000000     1.35684    
Fe10     Fe     0.423120000000     0.240070000000     0.575630000000     1.36601    
Fe11     Fe     0.522850000000     0.237650000000     0.578590000000     1.35614    
Fe12     Fe     0.525090000000     0.341050000000     0.576190000000     1.35677    
Fe13     Fe     0.288480000000     0.869460000000     0.326800000000     1.35879    
Fe14     Fe     0.287870000000     0.971480000000     0.327340000000     1.36165    
Fe15     Fe     0.389090000000     0.972300000000     0.325880000000     1.3564     
Fe16     Fe     0.423120000000     0.740070000000     0.075630000000     1.36602    
Fe17     Fe     0.522850000000     0.737650000000     0.078590000000     1.35617    
Fe18     Fe     0.525090000000     0.841050000000     0.076190000000     1.3568     
Fe19     Fe     0.288480000000     0.869460000000     0.826800000000     1.35879    
Fe20     Fe     0.287870000000     0.971480000000     0.827340000000     1.36165    
Fe21     Fe     0.389090000000     0.972300000000     0.825880000000     1.35637    
Fe22     Fe     0.423120000000     0.740070000000     0.575630000000     1.36601    
Fe23     Fe     0.522850000000     0.737650000000     0.578590000000     1.35621    
Fe24     Fe     0.525090000000     0.841050000000     0.576190000000     1.35681    
Fe25     Fe     0.788480000000     0.369460000000     0.326800000000     1.35891    
Fe26     Fe     0.787870000000     0.471480000000     0.327340000000     1.36208    
Fe27     Fe     0.889090000000     0.472300000000     0.325880000000     1.35704    
Fe28     Fe     0.923130000000     0.240070000000     0.075630000000     1.36525    
Fe29     Fe     0.022850000000     0.237650000000     0.078590000000     1.34829    
Fe30     Fe     0.025090000000     0.341050000000     0.076190000000     1.34903    
Fe31     Fe     0.788480000000     0.369460000000     0.826800000000     1.3589     
Fe32     Fe     0.787870000000     0.471480000000     0.827340000000     1.36208    
Fe33     Fe     0.889090000000     0.472300000000     0.825880000000     1.35702    
Fe34     Fe     0.923130000000     0.240070000000     0.575630000000     1.36523    
Fe35     Fe     0.022850000000     0.237650000000     0.578590000000     1.34832    
Fe36     Fe     0.025090000000     0.341050000000     0.576190000000     1.34903    
Fe37     Fe     0.788480000000     0.869460000000     0.326800000000     1.35893    
Fe38     Fe     0.787870000000     0.971480000000     0.327340000000     1.36175    
Fe39     Fe     0.889080000000     0.972300000000     0.325880000000     1.35689    
Fe40     Fe     0.923120000000     0.740070000000     0.075630000000     1.36511    
Fe41     Fe     0.022850000000     0.737650000000     0.078590000000     1.34834    
Fe42     Fe     0.025090000000     0.841050000000     0.076190000000     1.34911    
Fe43     Fe     0.788480000000     0.869460000000     0.826800000000     1.35892    
Fe44     Fe     0.787870000000     0.971480000000     0.827340000000     1.36175    
Fe45     Fe     0.889080000000     0.972300000000     0.825880000000     1.35686    
Fe46     Fe     0.923120000000     0.740070000000     0.575630000000     1.3651     
Fe47     Fe     0.022850000000     0.737650000000     0.578590000000     1.34837    
Fe48     Fe     0.025090000000     0.841050000000     0.576190000000     1.34911    
H1       H      0.629210000000     0.416980000000     0.984940000000     0.0327154  
H2       H      0.193260000000     0.449990000000     0.427240000000     0.0341323  
H3       H      0.186170000000     0.296450000000     0.419820000000     0.0392361  
H4       H      0.647410000000     0.235240000000     0.016190000000     0.0361273  
H5       H      0.622060000000     0.261370000000     0.172610000000     0.0310785  
H6       H      0.186810000000     0.292000000000     0.230060000000     0.0327603  
H7       H      0.684840000000     0.441080000000     0.237140000000     0.0395411  
H8       H      0.647420000000     0.464830000000     0.141130000000     0.0366286  
H9       H      0.491330000000     0.144000000000     0.176630000000     0.0347746  
H10      H      0.461040000000     0.582100000000     0.236630000000     0.0344012  
H11      H      0.304390000000     0.562840000000     0.225650000000     0.0387023  
H12      H      0.313870000000     0.172640000000     0.177200000000     0.0392258  
H13      H      0.466160000000     0.572520000000     0.421250000000     0.0323152  
H14      H      0.500260000000     0.137410000000     0.479230000000     0.0338218  
H15      H      0.351220000000     0.135740000000     0.985760000000     0.0400607  
H16      H      0.290870000000     0.598800000000     0.889780000000     0.0360851  
H17      H      0.347520000000     0.264770000000     0.983050000000     0.0307405  
H18      H      0.312720000000     0.295620000000     0.426080000000     0.0323366  
H19      H      0.465030000000     0.440460000000     0.413660000000     0.0396001  
H20      H      0.530500000000     0.464900000000     0.507850000000     0.0359382  
H21      H      0.466440000000     0.448590000000     0.232680000000     0.0317066  
H22      H      0.501150000000     0.418430000000     0.174960000000     0.033697   
H23      H      0.349910000000     0.272340000000     0.163840000000     0.0382621  
H24      H      0.286730000000     0.246400000000     0.258910000000     0.0353253  
H25      H      0.629210000000     0.416980000000     0.484940000000     0.0327066  
H26      H      0.193260000000     0.449990000000     0.927240000000     0.0341339  
H27      H      0.186170000000     0.296450000000     0.919820000000     0.0392364  
H28      H      0.647410000000     0.235240000000     0.516190000000     0.036168   
H29      H      0.622060000000     0.261370000000     0.672610000000     0.0310802  
H30      H      0.186810000000     0.292000000000     0.730060000000     0.0327606  
H31      H      0.684840000000     0.441080000000     0.737140000000     0.0395403  
H32      H      0.647420000000     0.464830000000     0.641130000000     0.0366341  
H33      H      0.491330000000     0.144000000000     0.676630000000     0.0347701  
H34      H      0.461040000000     0.582100000000     0.736630000000     0.0343956  
H35      H      0.304390000000     0.562840000000     0.725650000000     0.0386992  
H36      H      0.313870000000     0.172640000000     0.677200000000     0.0392232  
H37      H      0.466160000000     0.572520000000     0.921250000000     0.0323168  
H38      H      0.500260000000     0.137410000000     0.979230000000     0.0338357  
H39      H      0.351220000000     0.135740000000     0.485760000000     0.0400473  
H40      H      0.290870000000     0.598800000000     0.389780000000     0.0360821  
H41      H      0.347520000000     0.264770000000     0.483050000000     0.0307271  
H42      H      0.312720000000     0.295620000000     0.926080000000     0.0323353  
H43      H      0.465030000000     0.440460000000     0.913660000000     0.0395993  
H44      H      0.530500000000     0.464900000000     0.007850000000     0.0358974  
H45      H      0.466440000000     0.448590000000     0.732680000000     0.0317064  
H46      H      0.501150000000     0.418430000000     0.674960000000     0.0336948  
H47      H      0.349910000000     0.272340000000     0.663840000000     0.0382576  
H48      H      0.286730000000     0.246400000000     0.758910000000     0.0353212  
H49      H      0.629210000000     0.916980000000     0.984940000000     0.0326894  
H50      H      0.193260000000     0.949990000000     0.427240000000     0.0340892  
H51      H      0.186170000000     0.796450000000     0.419820000000     0.0392321  
H52      H      0.647410000000     0.735240000000     0.016190000000     0.0361133  
H53      H      0.622070000000     0.761370000000     0.172610000000     0.0310623  
H54      H      0.186810000000     0.792000000000     0.230060000000     0.0327559  
H55      H      0.684840000000     0.941080000000     0.237140000000     0.0395027  
H56      H      0.647420000000     0.964830000000     0.141130000000     0.0365854  
H57      H      0.491320000000     0.644000000000     0.176630000000     0.0347813  
H58      H      0.461040000000     0.082100000000     0.236630000000     0.0344356  
H59      H      0.304390000000     0.062840000000     0.225650000000     0.0387328  
H60      H      0.313870000000     0.672630000000     0.177200000000     0.0392409  
H61      H      0.466160000000     0.072520000000     0.421250000000     0.0323437  
H62      H      0.500260000000     0.637410000000     0.479230000000     0.0338074  
H63      H      0.351220000000     0.635740000000     0.985760000000     0.0400526  
H64      H      0.290870000000     0.098800000000     0.889780000000     0.0360889  
H65      H      0.347520000000     0.764770000000     0.983050000000     0.0307287  
H66      H      0.312720000000     0.795620000000     0.426080000000     0.0323518  
H67      H      0.465030000000     0.940460000000     0.413660000000     0.0395666  
H68      H      0.530510000000     0.964900000000     0.507850000000     0.035902   
H69      H      0.466440000000     0.948600000000     0.232680000000     0.031672   
H70      H      0.501150000000     0.918420000000     0.174960000000     0.0336831  
H71      H      0.349910000000     0.772340000000     0.163840000000     0.0382623  
H72      H      0.286740000000     0.746400000000     0.258910000000     0.0353193  
H73      H      0.629210000000     0.916980000000     0.484940000000     0.0326806  
H74      H      0.193260000000     0.949990000000     0.927240000000     0.0340908  
H75      H      0.186170000000     0.796450000000     0.919820000000     0.0392324  
H76      H      0.647410000000     0.735240000000     0.516190000000     0.036154   
H77      H      0.622070000000     0.761370000000     0.672610000000     0.031064   
H78      H      0.186810000000     0.792000000000     0.730060000000     0.0327562  
H79      H      0.684840000000     0.941080000000     0.737140000000     0.0395019  
H80      H      0.647420000000     0.964830000000     0.641130000000     0.0365909  
H81      H      0.491320000000     0.644000000000     0.676630000000     0.0347767  
H82      H      0.461040000000     0.082100000000     0.736630000000     0.03443    
H83      H      0.304390000000     0.062840000000     0.725650000000     0.0387297  
H84      H      0.313870000000     0.672630000000     0.677200000000     0.0392382  
H85      H      0.466160000000     0.072520000000     0.921250000000     0.0323453  
H86      H      0.500260000000     0.637410000000     0.979230000000     0.0338212  
H87      H      0.351220000000     0.635740000000     0.485760000000     0.0400392  
H88      H      0.290870000000     0.098800000000     0.389780000000     0.0360859  
H89      H      0.347520000000     0.764770000000     0.483050000000     0.0307152  
H90      H      0.312720000000     0.795620000000     0.926080000000     0.0323506  
H91      H      0.465030000000     0.940460000000     0.913660000000     0.0395658  
H92      H      0.530510000000     0.964900000000     0.007850000000     0.0358612  
H93      H      0.466440000000     0.948600000000     0.732680000000     0.0316718  
H94      H      0.501150000000     0.918420000000     0.674960000000     0.0336809  
H95      H      0.349910000000     0.772340000000     0.663840000000     0.0382578  
H96      H      0.286740000000     0.746400000000     0.758910000000     0.0353152  
H97      H      0.129210000000     0.416980000000     0.984940000000     0.0326983  
H98      H      0.693260000000     0.449990000000     0.427240000000     0.0342311  
H99      H      0.686170000000     0.296450000000     0.419820000000     0.039369   
H100     H      0.147410000000     0.235240000000     0.016190000000     0.0361396  
H101     H      0.122070000000     0.261370000000     0.172610000000     0.0307204  
H102     H      0.686810000000     0.292000000000     0.230060000000     0.032953   
H103     H      0.184840000000     0.441080000000     0.237140000000     0.0394169  
H104     H      0.147420000000     0.464830000000     0.141130000000     0.0366824  
H105     H      0.991320000000     0.144000000000     0.176630000000     0.0356787  
H106     H      0.961040000000     0.582100000000     0.236630000000     0.0348815  
H107     H      0.804390000000     0.562840000000     0.225650000000     0.0387609  
H108     H      0.813860000000     0.172640000000     0.177200000000     0.0393192  
H109     H      0.966160000000     0.572520000000     0.421250000000     0.0334942  
H110     H      0.000260000000     0.137410000000     0.479230000000     0.0301272  
H111     H      0.851220000000     0.135740000000     0.985760000000     0.040085   
H112     H      0.790870000000     0.598800000000     0.889780000000     0.0362387  
H113     H      0.847520000000     0.264770000000     0.983050000000     0.030788   
H114     H      0.812720000000     0.295620000000     0.426080000000     0.0324375  
H115     H      0.965030000000     0.440460000000     0.413660000000     0.0406388  
H116     H      0.030500000000     0.464900000000     0.507850000000     0.0356102  
H117     H      0.966440000000     0.448590000000     0.232680000000     0.0328385  
H118     H      0.001150000000     0.418430000000     0.174960000000     0.0300237  
H119     H      0.849910000000     0.272340000000     0.163840000000     0.0382786  
H120     H      0.786730000000     0.246400000000     0.258910000000     0.0354826  
H121     H      0.129210000000     0.416980000000     0.484940000000     0.0326894  
H122     H      0.693260000000     0.449990000000     0.927240000000     0.0342327  
H123     H      0.686170000000     0.296450000000     0.919820000000     0.0393693  
H124     H      0.147410000000     0.235240000000     0.516190000000     0.0361804  
H125     H      0.122070000000     0.261370000000     0.672610000000     0.0307221  
H126     H      0.686810000000     0.292000000000     0.730060000000     0.0329533  
H127     H      0.184840000000     0.441080000000     0.737140000000     0.0394162  
H128     H      0.147420000000     0.464830000000     0.641130000000     0.0366879  
H129     H      0.991320000000     0.144000000000     0.676630000000     0.0356741  
H130     H      0.961040000000     0.582100000000     0.736630000000     0.0348759  
H131     H      0.804390000000     0.562840000000     0.725650000000     0.0387577  
H132     H      0.813860000000     0.172640000000     0.677200000000     0.0393166  
H133     H      0.966160000000     0.572520000000     0.921250000000     0.0334957  
H134     H      0.000260000000     0.137410000000     0.979230000000     0.0301415  
H135     H      0.851220000000     0.135740000000     0.485760000000     0.0400716  
H136     H      0.790870000000     0.598800000000     0.389780000000     0.0362357  
H137     H      0.847520000000     0.264770000000     0.483050000000     0.0307746  
H138     H      0.812720000000     0.295620000000     0.926080000000     0.0324363  
H139     H      0.965030000000     0.440460000000     0.913660000000     0.0406379  
H140     H      0.030500000000     0.464900000000     0.007850000000     0.0355693  
H141     H      0.966440000000     0.448590000000     0.732680000000     0.0328382  
H142     H      0.001150000000     0.418430000000     0.674960000000     0.0300215  
H143     H      0.849910000000     0.272340000000     0.663840000000     0.0382741  
H144     H      0.786730000000     0.246400000000     0.758910000000     0.0354786  
H145     H      0.129210000000     0.916980000000     0.984940000000     0.0326788  
H146     H      0.693260000000     0.949990000000     0.427240000000     0.0342016  
H147     H      0.686170000000     0.796450000000     0.419820000000     0.0393649  
H148     H      0.147410000000     0.735240000000     0.016190000000     0.0361269  
H149     H      0.122070000000     0.761370000000     0.172610000000     0.0307115  
H150     H      0.686810000000     0.792000000000     0.230060000000     0.0329492  
H151     H      0.184840000000     0.941080000000     0.237140000000     0.0393812  
H152     H      0.147420000000     0.964830000000     0.141130000000     0.0366441  
H153     H      0.991320000000     0.644000000000     0.176630000000     0.0356877  
H154     H      0.961040000000     0.082100000000     0.236630000000     0.0349407  
H155     H      0.804390000000     0.062840000000     0.225650000000     0.0387916  
H156     H      0.813860000000     0.672630000000     0.177200000000     0.0393335  
H157     H      0.966160000000     0.072520000000     0.421250000000     0.033527   
H158     H      0.000260000000     0.637410000000     0.479230000000     0.0301122  
H159     H      0.851220000000     0.635740000000     0.985760000000     0.0400722  
H160     H      0.790870000000     0.098800000000     0.889780000000     0.0362405  
H161     H      0.847520000000     0.764770000000     0.983050000000     0.0307717  
H162     H      0.812720000000     0.795620000000     0.426080000000     0.0324532  
H163     H      0.965030000000     0.940460000000     0.413660000000     0.0406124  
H164     H      0.030500000000     0.964900000000     0.507850000000     0.0355727  
H165     H      0.966440000000     0.948600000000     0.232680000000     0.0328156  
H166     H      0.001150000000     0.918420000000     0.174960000000     0.0300044  
H167     H      0.849910000000     0.772340000000     0.163840000000     0.0382842  
H168     H      0.786740000000     0.746400000000     0.258910000000     0.0354777  
H169     H      0.129210000000     0.916980000000     0.484940000000     0.0326699  
H170     H      0.693260000000     0.949990000000     0.927240000000     0.0342032  
H171     H      0.686170000000     0.796450000000     0.919820000000     0.0393652  
H172     H      0.147410000000     0.735240000000     0.516190000000     0.0361677  
H173     H      0.122070000000     0.761370000000     0.672610000000     0.0307132  
H174     H      0.686810000000     0.792000000000     0.730060000000     0.0329495  
H175     H      0.184840000000     0.941080000000     0.737140000000     0.0393804  
H176     H      0.147420000000     0.964830000000     0.641130000000     0.0366496  
H177     H      0.991320000000     0.644000000000     0.676630000000     0.0356831  
H178     H      0.961040000000     0.082100000000     0.736630000000     0.034935   
H179     H      0.804390000000     0.062840000000     0.725650000000     0.0387884  
H180     H      0.813860000000     0.672630000000     0.677200000000     0.0393309  
H181     H      0.966160000000     0.072520000000     0.921250000000     0.0335285  
H182     H      0.000260000000     0.637410000000     0.979230000000     0.0301266  
H183     H      0.851220000000     0.635740000000     0.485760000000     0.0400588  
H184     H      0.790870000000     0.098800000000     0.389780000000     0.0362376  
H185     H      0.847520000000     0.764770000000     0.483050000000     0.0307582  
H186     H      0.812720000000     0.795620000000     0.926080000000     0.0324519  
H187     H      0.965030000000     0.940460000000     0.913660000000     0.0406115  
H188     H      0.030500000000     0.964900000000     0.007850000000     0.0355318  
H189     H      0.966440000000     0.948600000000     0.732680000000     0.0328153  
H190     H      0.001150000000     0.918420000000     0.674960000000     0.0300021  
H191     H      0.849910000000     0.772340000000     0.663840000000     0.0382797  
H192     H      0.786740000000     0.746400000000     0.758910000000     0.0354737  
N1       N      0.194270000000     0.375510000000     0.419300000000    -0.195607   
N2       N      0.621250000000     0.337610000000     0.987230000000    -0.201753   
N3       N      0.190570000000     0.368840000000     0.237580000000    -0.196281   
N4       N      0.617520000000     0.334630000000     0.169840000000    -0.202211   
N5       N      0.380580000000     0.568330000000     0.235670000000    -0.195643   
N6       N      0.416080000000     0.141480000000     0.167440000000    -0.203227   
N7       N      0.428180000000     0.141300000000     0.986630000000    -0.195687   
N8       N      0.389280000000     0.567940000000     0.418300000000    -0.201689   
N9       N      0.386450000000     0.370330000000     0.415790000000    -0.196402   
N10      N      0.426080000000     0.335980000000     0.983110000000    -0.202857   
N11      N      0.428070000000     0.343010000000     0.165400000000    -0.195453   
N12      N      0.388500000000     0.376570000000     0.233530000000    -0.201602   
N13      N      0.194270000000     0.375510000000     0.919300000000    -0.195607   
N14      N      0.621250000000     0.337610000000     0.487230000000    -0.201758   
N15      N      0.190570000000     0.368840000000     0.737580000000    -0.196281   
N16      N      0.617520000000     0.334630000000     0.669840000000    -0.202212   
N17      N      0.380580000000     0.568330000000     0.735670000000    -0.195684   
N18      N      0.416080000000     0.141480000000     0.667440000000    -0.203269   
N19      N      0.428180000000     0.141300000000     0.486620000000    -0.195659   
N20      N      0.389280000000     0.567940000000     0.918300000000    -0.201688   
N21      N      0.386450000000     0.370330000000     0.915800000000    -0.196349   
N22      N      0.426080000000     0.335980000000     0.483110000000    -0.202883   
N23      N      0.428070000000     0.343010000000     0.665400000000    -0.195495   
N24      N      0.388500000000     0.376570000000     0.733530000000    -0.201601   
N25      N      0.194270000000     0.875510000000     0.419300000000    -0.19561    
N26      N      0.621250000000     0.837610000000     0.987230000000    -0.201725   
N27      N      0.190570000000     0.868840000000     0.237580000000    -0.19628    
N28      N      0.617520000000     0.834630000000     0.169840000000    -0.202214   
N29      N      0.380580000000     0.068330000000     0.235670000000    -0.19564    
N30      N      0.416080000000     0.641480000000     0.167440000000    -0.203239   
N31      N      0.428180000000     0.641300000000     0.986630000000    -0.195689   
N32      N      0.389280000000     0.067940000000     0.418300000000    -0.201667   
N33      N      0.386450000000     0.870330000000     0.415790000000    -0.196362   
N34      N      0.426080000000     0.835980000000     0.983110000000    -0.202863   
N35      N      0.428070000000     0.843010000000     0.165400000000    -0.195419   
N36      N      0.388500000000     0.876570000000     0.233530000000    -0.201602   
N37      N      0.194270000000     0.875510000000     0.919300000000    -0.195609   
N38      N      0.621250000000     0.837610000000     0.487230000000    -0.20173    
N39      N      0.190570000000     0.868840000000     0.737580000000    -0.19628    
N40      N      0.617520000000     0.834630000000     0.669840000000    -0.202214   
N41      N      0.380580000000     0.068330000000     0.735670000000    -0.195681   
N42      N      0.416080000000     0.641480000000     0.667440000000    -0.203281   
N43      N      0.428180000000     0.641300000000     0.486620000000    -0.195661   
N44      N      0.389280000000     0.067940000000     0.918300000000    -0.201665   
N45      N      0.386450000000     0.870330000000     0.915800000000    -0.196309   
N46      N      0.426080000000     0.835980000000     0.483110000000    -0.20289    
N47      N      0.428070000000     0.843010000000     0.665400000000    -0.195461   
N48      N      0.388500000000     0.876570000000     0.733530000000    -0.201602   
N49      N      0.694270000000     0.375510000000     0.419300000000    -0.195577   
N50      N      0.121250000000     0.337610000000     0.987230000000    -0.201688   
N51      N      0.690570000000     0.368840000000     0.237580000000    -0.19624    
N52      N      0.117520000000     0.334630000000     0.169840000000    -0.202186   
N53      N      0.880580000000     0.568330000000     0.235670000000    -0.195628   
N54      N      0.916080000000     0.141480000000     0.167440000000    -0.202979   
N55      N      0.928180000000     0.141300000000     0.986630000000    -0.196172   
N56      N      0.889280000000     0.567940000000     0.418300000000    -0.201356   
N57      N      0.886450000000     0.370330000000     0.415790000000    -0.196187   
N58      N      0.926080000000     0.335980000000     0.983110000000    -0.203007   
N59      N      0.928070000000     0.343010000000     0.165400000000    -0.195907   
N60      N      0.888500000000     0.376570000000     0.233530000000    -0.201278   
N61      N      0.694270000000     0.375510000000     0.919300000000    -0.195577   
N62      N      0.121250000000     0.337610000000     0.487230000000    -0.201692   
N63      N      0.690570000000     0.368840000000     0.737580000000    -0.19624    
N64      N      0.117520000000     0.334630000000     0.669840000000    -0.202187   
N65      N      0.880580000000     0.568330000000     0.735670000000    -0.195669   
N66      N      0.916080000000     0.141480000000     0.667440000000    -0.203022   
N67      N      0.928180000000     0.141300000000     0.486620000000    -0.196144   
N68      N      0.889280000000     0.567940000000     0.918300000000    -0.201354   
N69      N      0.886450000000     0.370330000000     0.915800000000    -0.196133   
N70      N      0.926080000000     0.335980000000     0.483110000000    -0.203033   
N71      N      0.928070000000     0.343010000000     0.665400000000    -0.195949   
N72      N      0.888500000000     0.376570000000     0.733530000000    -0.201277   
N73      N      0.694270000000     0.875510000000     0.419300000000    -0.195567   
N74      N      0.121250000000     0.837610000000     0.987230000000    -0.201689   
N75      N      0.690570000000     0.868840000000     0.237580000000    -0.196241   
N76      N      0.117520000000     0.834630000000     0.169840000000    -0.202189   
N77      N      0.880580000000     0.068330000000     0.235670000000    -0.195608   
N78      N      0.916080000000     0.641480000000     0.167440000000    -0.20299    
N79      N      0.928180000000     0.641300000000     0.986630000000    -0.196173   
N80      N      0.889280000000     0.067940000000     0.418300000000    -0.201366   
N81      N      0.886450000000     0.870330000000     0.415790000000    -0.196137   
N82      N      0.926080000000     0.835980000000     0.983110000000    -0.20301    
N83      N      0.928080000000     0.843010000000     0.165400000000    -0.195917   
N84      N      0.888500000000     0.876570000000     0.233530000000    -0.201276   
N85      N      0.694270000000     0.875510000000     0.919300000000    -0.195567   
N86      N      0.121250000000     0.837610000000     0.487230000000    -0.201694   
N87      N      0.690570000000     0.868840000000     0.737580000000    -0.196241   
N88      N      0.117520000000     0.834630000000     0.669840000000    -0.202189   
N89      N      0.880580000000     0.068330000000     0.735670000000    -0.195649   
N90      N      0.916080000000     0.641480000000     0.667440000000    -0.203032   
N91      N      0.928180000000     0.641300000000     0.486620000000    -0.196146   
N92      N      0.889280000000     0.067940000000     0.918300000000    -0.201365   
N93      N      0.886450000000     0.870330000000     0.915800000000    -0.196084   
N94      N      0.926080000000     0.835980000000     0.483110000000    -0.203037   
N95      N      0.928080000000     0.843010000000     0.665400000000    -0.195959   
N96      N      0.888500000000     0.876570000000     0.733530000000    -0.201276   
O1       O      0.398740000000     0.422710000000     0.356660000000    -0.500374   
O2       O      0.313790000000     0.501510000000     0.275610000000    -0.506791   
O3       O      0.317240000000     0.366820000000     0.377540000000    -0.506867   
O4       O      0.337390000000     0.361680000000     0.293890000000    -0.496141   
O5       O      0.392540000000     0.502550000000     0.377730000000    -0.502486   
O6       O      0.229520000000     0.421340000000     0.296680000000    -0.501788   
O7       O      0.321740000000     0.437630000000     0.326660000000    -0.869486   
O8       O      0.258830000000     0.444160000000     0.379100000000    -0.505189   
O9       O      0.231680000000     0.360780000000     0.359800000000    -0.498027   
O10      O      0.391370000000     0.444950000000     0.274080000000    -0.50306    
O11      O      0.256460000000     0.365810000000     0.276100000000    -0.505075   
O12      O      0.337930000000     0.530280000000     0.358200000000    -0.498248   
O13      O      0.396390000000     0.530640000000     0.294700000000    -0.498102   
O14      O      0.477140000000     0.350250000000     0.043280000000    -0.498406   
O15      O      0.551960000000     0.265840000000     0.130230000000    -0.503798   
O16      O      0.422280000000     0.267290000000     0.023560000000    -0.507439   
O17      O      0.415160000000     0.291050000000     0.105910000000    -0.500442   
O18      O      0.556020000000     0.342300000000     0.025470000000    -0.503341   
O19      O      0.472000000000     0.180170000000     0.110170000000    -0.498556   
O20      O      0.490330000000     0.272880000000     0.076830000000    -0.870042   
O21      O      0.496440000000     0.206170000000     0.027100000000    -0.502795   
O22      O      0.414260000000     0.180850000000     0.045160000000    -0.501716   
O23      O      0.496980000000     0.345640000000     0.126910000000    -0.502165   
O24      O      0.418110000000     0.209920000000     0.127520000000    -0.506115   
O25      O      0.581780000000     0.286480000000     0.047380000000    -0.495916   
O26      O      0.581680000000     0.348720000000     0.108880000000    -0.497604   
O27      O      0.398740000000     0.422710000000     0.856660000000    -0.500352   
O28      O      0.313790000000     0.501510000000     0.775610000000    -0.506744   
O29      O      0.317240000000     0.366820000000     0.877540000000    -0.506842   
O30      O      0.337390000000     0.361680000000     0.793890000000    -0.496141   
O31      O      0.392540000000     0.502550000000     0.877730000000    -0.50248    
O32      O      0.229520000000     0.421340000000     0.796680000000    -0.50179    
O33      O      0.321740000000     0.437630000000     0.826660000000    -0.869479   
O34      O      0.258830000000     0.444160000000     0.879100000000    -0.505188   
O35      O      0.231680000000     0.360780000000     0.859800000000    -0.498027   
O36      O      0.391370000000     0.444950000000     0.774080000000    -0.503061   
O37      O      0.256460000000     0.365810000000     0.776100000000    -0.505074   
O38      O      0.337930000000     0.530280000000     0.858200000000    -0.49824    
O39      O      0.396390000000     0.530640000000     0.794700000000    -0.498002   
O40      O      0.477140000000     0.350250000000     0.543280000000    -0.498399   
O41      O      0.551960000000     0.265840000000     0.630230000000    -0.503801   
O42      O      0.422280000000     0.267290000000     0.523560000000    -0.50743    
O43      O      0.415160000000     0.291050000000     0.605910000000    -0.50034    
O44      O      0.556020000000     0.342300000000     0.525470000000    -0.503291   
O45      O      0.472000000000     0.180170000000     0.610170000000    -0.498467   
O46      O      0.490330000000     0.272880000000     0.576830000000    -0.870044   
O47      O      0.496440000000     0.206170000000     0.527100000000    -0.502776   
O48      O      0.414260000000     0.180850000000     0.545160000000    -0.501686   
O49      O      0.496980000000     0.345640000000     0.626910000000    -0.502123   
O50      O      0.418110000000     0.209920000000     0.627520000000    -0.506074   
O51      O      0.581780000000     0.286480000000     0.547390000000    -0.49587    
O52      O      0.581680000000     0.348720000000     0.608880000000    -0.497595   
O53      O      0.398740000000     0.922710000000     0.356660000000    -0.500472   
O54      O      0.313790000000     0.001510000000     0.275610000000    -0.506555   
O55      O      0.317240000000     0.866820000000     0.377540000000    -0.506896   
O56      O      0.337390000000     0.861680000000     0.293890000000    -0.496122   
O57      O      0.392540000000     0.002550000000     0.377730000000    -0.502266   
O58      O      0.229520000000     0.921340000000     0.296680000000    -0.501773   
O59      O      0.321740000000     0.937630000000     0.326660000000    -0.869271   
O60      O      0.258830000000     0.944160000000     0.379100000000    -0.505205   
O61      O      0.231680000000     0.860780000000     0.359800000000    -0.498017   
O62      O      0.391370000000     0.944950000000     0.274080000000    -0.503076   
O63      O      0.256460000000     0.865810000000     0.276100000000    -0.505068   
O64      O      0.337930000000     0.030280000000     0.358200000000    -0.498096   
O65      O      0.396390000000     0.030640000000     0.294700000000    -0.497836   
O66      O      0.477140000000     0.850250000000     0.043280000000    -0.498417   
O67      O      0.551960000000     0.765840000000     0.130230000000    -0.503799   
O68      O      0.422280000000     0.767290000000     0.023560000000    -0.507441   
O69      O      0.415160000000     0.791050000000     0.105910000000    -0.500393   
O70      O      0.556010000000     0.842300000000     0.025470000000    -0.503259   
O71      O      0.472000000000     0.680180000000     0.110170000000    -0.498683   
O72      O      0.490330000000     0.772880000000     0.076830000000    -0.870042   
O73      O      0.496440000000     0.706170000000     0.027100000000    -0.502803   
O74      O      0.414260000000     0.680850000000     0.045160000000    -0.501721   
O75      O      0.496990000000     0.845640000000     0.126910000000    -0.502079   
O76      O      0.418110000000     0.709920000000     0.127520000000    -0.506134   
O77      O      0.581780000000     0.786480000000     0.047380000000    -0.495882   
O78      O      0.581680000000     0.848720000000     0.108880000000    -0.497616   
O79      O      0.398740000000     0.922710000000     0.856660000000    -0.50045    
O80      O      0.313790000000     0.001510000000     0.775610000000    -0.506508   
O81      O      0.317240000000     0.866820000000     0.877540000000    -0.506871   
O82      O      0.337390000000     0.861680000000     0.793890000000    -0.496122   
O83      O      0.392540000000     0.002550000000     0.877730000000    -0.50226    
O84      O      0.229520000000     0.921340000000     0.796680000000    -0.501776   
O85      O      0.321740000000     0.937630000000     0.826660000000    -0.869264   
O86      O      0.258830000000     0.944160000000     0.879100000000    -0.505204   
O87      O      0.231680000000     0.860780000000     0.859800000000    -0.498017   
O88      O      0.391370000000     0.944950000000     0.774080000000    -0.503078   
O89      O      0.256460000000     0.865810000000     0.776100000000    -0.505068   
O90      O      0.337930000000     0.030280000000     0.858200000000    -0.498088   
O91      O      0.396390000000     0.030640000000     0.794700000000    -0.497736   
O92      O      0.477140000000     0.850250000000     0.543280000000    -0.498409   
O93      O      0.551960000000     0.765840000000     0.630230000000    -0.503802   
O94      O      0.422280000000     0.767290000000     0.523560000000    -0.507432   
O95      O      0.415160000000     0.791050000000     0.605910000000    -0.500291   
O96      O      0.556010000000     0.842300000000     0.525470000000    -0.503209   
O97      O      0.472000000000     0.680180000000     0.610170000000    -0.498594   
O98      O      0.490330000000     0.772880000000     0.576830000000    -0.870044   
O99      O      0.496440000000     0.706170000000     0.527100000000    -0.502785   
O100     O      0.414260000000     0.680850000000     0.545160000000    -0.501691   
O101     O      0.496990000000     0.845640000000     0.626910000000    -0.502037   
O102     O      0.418110000000     0.709920000000     0.627520000000    -0.506093   
O103     O      0.581780000000     0.786480000000     0.547390000000    -0.495836   
O104     O      0.581680000000     0.848720000000     0.608880000000    -0.497607   
O105     O      0.898740000000     0.422710000000     0.356660000000    -0.500165   
O106     O      0.813790000000     0.501510000000     0.275610000000    -0.506772   
O107     O      0.817240000000     0.366820000000     0.377540000000    -0.506846   
O108     O      0.837390000000     0.361680000000     0.293890000000    -0.496061   
O109     O      0.892540000000     0.502550000000     0.377730000000    -0.50227    
O110     O      0.729520000000     0.421340000000     0.296680000000    -0.50166    
O111     O      0.821740000000     0.437630000000     0.326660000000    -0.869457   
O112     O      0.758830000000     0.444160000000     0.379100000000    -0.505176   
O113     O      0.731680000000     0.360780000000     0.359800000000    -0.497893   
O114     O      0.891370000000     0.444950000000     0.274080000000    -0.502918   
O115     O      0.756460000000     0.365810000000     0.276100000000    -0.505053   
O116     O      0.837930000000     0.530280000000     0.358200000000    -0.498163   
O117     O      0.896390000000     0.530640000000     0.294700000000    -0.497823   
O118     O      0.977130000000     0.350250000000     0.043280000000    -0.495448   
O119     O      0.051960000000     0.265840000000     0.130230000000    -0.503772   
O120     O      0.922280000000     0.267290000000     0.023560000000    -0.506873   
O121     O      0.915160000000     0.291050000000     0.105910000000    -0.499918   
O122     O      0.056020000000     0.342300000000     0.025470000000    -0.503027   
O123     O      0.972000000000     0.180170000000     0.110170000000    -0.495962   
O124     O      0.990330000000     0.272880000000     0.076830000000    -0.865179   
O125     O      0.996440000000     0.206170000000     0.027100000000    -0.499463   
O126     O      0.914260000000     0.180850000000     0.045160000000    -0.501299   
O127     O      0.996980000000     0.345640000000     0.126910000000    -0.498806   
O128     O      0.918110000000     0.209920000000     0.127520000000    -0.505535   
O129     O      0.081780000000     0.286480000000     0.047380000000    -0.495072   
O130     O      0.081680000000     0.348720000000     0.108880000000    -0.496729   
O131     O      0.898740000000     0.422710000000     0.856660000000    -0.500142   
O132     O      0.813790000000     0.501510000000     0.775610000000    -0.506725   
O133     O      0.817240000000     0.366820000000     0.877540000000    -0.506821   
O134     O      0.837390000000     0.361680000000     0.793890000000    -0.496061   
O135     O      0.892540000000     0.502550000000     0.877730000000    -0.502264   
O136     O      0.729520000000     0.421340000000     0.796680000000    -0.501663   
O137     O      0.821740000000     0.437630000000     0.826660000000    -0.869451   
O138     O      0.758830000000     0.444160000000     0.879100000000    -0.505175   
O139     O      0.731680000000     0.360780000000     0.859800000000    -0.497893   
O140     O      0.891370000000     0.444950000000     0.774080000000    -0.502919   
O141     O      0.756460000000     0.365810000000     0.776100000000    -0.505053   
O142     O      0.837930000000     0.530280000000     0.858200000000    -0.498156   
O143     O      0.896390000000     0.530640000000     0.794700000000    -0.497723   
O144     O      0.977130000000     0.350250000000     0.543280000000    -0.495441   
O145     O      0.051960000000     0.265840000000     0.630230000000    -0.503775   
O146     O      0.922280000000     0.267290000000     0.523560000000    -0.506865   
O147     O      0.915160000000     0.291050000000     0.605910000000    -0.499816   
O148     O      0.056020000000     0.342300000000     0.525470000000    -0.502977   
O149     O      0.972000000000     0.180170000000     0.610170000000    -0.495874   
O150     O      0.990330000000     0.272880000000     0.576830000000    -0.865181   
O151     O      0.996440000000     0.206170000000     0.527100000000    -0.499444   
O152     O      0.914260000000     0.180850000000     0.545160000000    -0.501269   
O153     O      0.996980000000     0.345640000000     0.626910000000    -0.498764   
O154     O      0.918110000000     0.209920000000     0.627520000000    -0.505495   
O155     O      0.081780000000     0.286480000000     0.547390000000    -0.495025   
O156     O      0.081680000000     0.348720000000     0.608880000000    -0.49672    
O157     O      0.898740000000     0.922710000000     0.356660000000    -0.500158   
O158     O      0.813790000000     0.001510000000     0.275610000000    -0.506557   
O159     O      0.817240000000     0.866820000000     0.377540000000    -0.506874   
O160     O      0.837390000000     0.861680000000     0.293890000000    -0.496053   
O161     O      0.892540000000     0.002550000000     0.377730000000    -0.502168   
O162     O      0.729520000000     0.921340000000     0.296680000000    -0.501646   
O163     O      0.821740000000     0.937630000000     0.326660000000    -0.869554   
O164     O      0.758830000000     0.944160000000     0.379100000000    -0.505198   
O165     O      0.731680000000     0.860780000000     0.359800000000    -0.497889   
O166     O      0.891370000000     0.944950000000     0.274080000000    -0.502912   
O167     O      0.756460000000     0.865810000000     0.276100000000    -0.505055   
O168     O      0.837940000000     0.030280000000     0.358200000000    -0.49812    
O169     O      0.896390000000     0.030640000000     0.294700000000    -0.497665   
O170     O      0.977140000000     0.850250000000     0.043280000000    -0.4955     
O171     O      0.051960000000     0.765840000000     0.130230000000    -0.50377    
O172     O      0.922280000000     0.767290000000     0.023560000000    -0.506876   
O173     O      0.915160000000     0.791050000000     0.105910000000    -0.499942   
O174     O      0.056020000000     0.842300000000     0.025470000000    -0.503028   
O175     O      0.972000000000     0.680180000000     0.110170000000    -0.495996   
O176     O      0.990330000000     0.772880000000     0.076830000000    -0.865029   
O177     O      0.996440000000     0.706170000000     0.027100000000    -0.499463   
O178     O      0.914260000000     0.680850000000     0.045160000000    -0.501254   
O179     O      0.996990000000     0.845640000000     0.126910000000    -0.498743   
O180     O      0.918110000000     0.709920000000     0.127520000000    -0.505593   
O181     O      0.081780000000     0.786480000000     0.047380000000    -0.495088   
O182     O      0.081680000000     0.848720000000     0.108880000000    -0.496744   
O183     O      0.898740000000     0.922710000000     0.856660000000    -0.500135   
O184     O      0.813790000000     0.001510000000     0.775610000000    -0.50651    
O185     O      0.817240000000     0.866820000000     0.877540000000    -0.506849   
O186     O      0.837390000000     0.861680000000     0.793890000000    -0.496053   
O187     O      0.892540000000     0.002550000000     0.877730000000    -0.502163   
O188     O      0.729520000000     0.921340000000     0.796680000000    -0.501649   
O189     O      0.821740000000     0.937630000000     0.826660000000    -0.869547   
O190     O      0.758830000000     0.944160000000     0.879100000000    -0.505197   
O191     O      0.731680000000     0.860780000000     0.859800000000    -0.497889   
O192     O      0.891370000000     0.944950000000     0.774080000000    -0.502913   
O193     O      0.756460000000     0.865810000000     0.776100000000    -0.505055   
O194     O      0.837940000000     0.030280000000     0.858200000000    -0.498113   
O195     O      0.896390000000     0.030640000000     0.794700000000    -0.497565   
O196     O      0.977140000000     0.850250000000     0.543280000000    -0.495493   
O197     O      0.051960000000     0.765840000000     0.630230000000    -0.503773   
O198     O      0.922280000000     0.767290000000     0.523560000000    -0.506868   
O199     O      0.915160000000     0.791050000000     0.605910000000    -0.49984    
O200     O      0.056020000000     0.842300000000     0.525470000000    -0.502978   
O201     O      0.972000000000     0.680180000000     0.610170000000    -0.495908   
O202     O      0.990330000000     0.772880000000     0.576830000000    -0.865031   
O203     O      0.996440000000     0.706170000000     0.527100000000    -0.499444   
O204     O      0.914260000000     0.680850000000     0.545160000000    -0.501224   
O205     O      0.996990000000     0.845640000000     0.626910000000    -0.498701   
O206     O      0.918110000000     0.709920000000     0.627520000000    -0.505552   
O207     O      0.081780000000     0.786480000000     0.547390000000    -0.495042   
O208     O      0.081680000000     0.848720000000     0.608880000000    -0.496735   
S1       S      0.614530000000     0.236490000000     0.984970000000    -0.033426   
S2       S      0.613880000000     0.430650000000     0.172230000000    -0.0332755  
S3       S      0.315060000000     0.130350000000     0.157040000000    -0.0462088  
S4       S      0.290860000000     0.564580000000     0.920750000000    -0.0338861  
S5       S      0.526720000000     0.428690000000     0.477100000000    -0.0325482  
S6       S      0.288840000000     0.282280000000     0.228550000000    -0.0334865  
S7       S      0.614530000000     0.236490000000     0.484970000000    -0.0334961  
S8       S      0.613880000000     0.430650000000     0.672230000000    -0.0332777  
S9       S      0.315060000000     0.130350000000     0.657040000000    -0.0462022  
S10      S      0.290860000000     0.564580000000     0.420760000000    -0.0338932  
S11      S      0.526720000000     0.428690000000     0.977100000000    -0.0324892  
S12      S      0.288840000000     0.282280000000     0.728540000000    -0.0334835  
S13      S      0.614530000000     0.736490000000     0.984970000000    -0.0334428  
S14      S      0.613870000000     0.930650000000     0.172230000000    -0.0333082  
S15      S      0.315060000000     0.630360000000     0.157040000000    -0.0462944  
S16      S      0.290860000000     0.064580000000     0.920750000000    -0.0337649  
S17      S      0.526720000000     0.928690000000     0.477100000000    -0.0325968  
S18      S      0.288840000000     0.782280000000     0.228550000000    -0.033499   
S19      S      0.614530000000     0.736490000000     0.484970000000    -0.0335129  
S20      S      0.613870000000     0.930650000000     0.672230000000    -0.0333104  
S21      S      0.315060000000     0.630360000000     0.657040000000    -0.0462878  
S22      S      0.290860000000     0.064580000000     0.420760000000    -0.033772   
S23      S      0.526720000000     0.928690000000     0.977100000000    -0.0325378  
S24      S      0.288840000000     0.782280000000     0.728540000000    -0.0334959  
S25      S      0.114530000000     0.236490000000     0.984970000000    -0.0346032  
S26      S      0.113880000000     0.430650000000     0.172230000000    -0.0344661  
S27      S      0.815060000000     0.130350000000     0.157040000000    -0.0460129  
S28      S      0.790860000000     0.564580000000     0.920750000000    -0.0336901  
S29      S      0.026720000000     0.428690000000     0.477100000000    -0.0369263  
S30      S      0.788840000000     0.282280000000     0.228550000000    -0.0332429  
S31      S      0.114530000000     0.236490000000     0.484970000000    -0.0346737  
S32      S      0.113880000000     0.430650000000     0.672230000000    -0.0344683  
S33      S      0.815060000000     0.130350000000     0.657040000000    -0.0460063  
S34      S      0.790860000000     0.564580000000     0.420760000000    -0.0336971  
S35      S      0.026720000000     0.428690000000     0.977100000000    -0.0368668  
S36      S      0.788840000000     0.282280000000     0.728540000000    -0.0332398  
S37      S      0.114530000000     0.736490000000     0.984970000000    -0.0346238  
S38      S      0.113880000000     0.930650000000     0.172230000000    -0.0345079  
S39      S      0.815060000000     0.630360000000     0.157040000000    -0.0461088  
S40      S      0.790860000000     0.064580000000     0.920750000000    -0.0335817  
S41      S      0.026720000000     0.928690000000     0.477100000000    -0.036962   
S42      S      0.788840000000     0.782280000000     0.228550000000    -0.0332592  
S43      S      0.114530000000     0.736490000000     0.484970000000    -0.0346942  
S44      S      0.113880000000     0.930650000000     0.672230000000    -0.0345101  
S45      S      0.815060000000     0.630360000000     0.657040000000    -0.0461023  
S46      S      0.790860000000     0.064580000000     0.420760000000    -0.0335887  
S47      S      0.026720000000     0.928690000000     0.977100000000    -0.0369025  
S48      S      0.788840000000     0.782280000000     0.728540000000    -0.0332562  


