data_structure

_audit_creation_method RASPA-1.0
_audit_creation_date 2023-6-4
_audit_author_name 'Poobodin Mano'

_cell_length_a    29.4804
_cell_length_b    29.7638
_cell_length_c    29.6621
_cell_angle_alpha 90
_cell_angle_beta  90
_cell_angle_gamma 120
_cell_volume      22540

_symmetry_cell_setting          triclinic
_symmetry_space_group_name_Hall 'P 1'
_symmetry_space_group_name_H-M  'P 1'
_symmetry_Int_Tables_number     1

_symmetry_equiv_pos_as_xyz 'x,y,z'

loop_
_atom_site_label
_atom_site_type_symbol
_atom_site_fract_x
_atom_site_fract_y
_atom_site_fract_z
_atom_site_charge
Br1      Br     0.598090000000     0.226540000000     0.517730000000    -0.215524   
Br2      Br     0.165780000000     0.445780000000     0.266010000000    -0.22013    
Br3      Br     0.432550000000     0.514420000000     0.230670000000    -0.208573   
Br4      Br     0.479530000000     0.558960000000     0.425970000000    -0.20632    
Br5      Br     0.391180000000     0.310650000000     0.361410000000    -0.2673     
Br6      Br     0.335220000000     0.327830000000     0.121080000000    -0.22068    
Br7      Br     0.598090000000     0.226540000000     0.017730000000    -0.215515   
Br8      Br     0.165780000000     0.445780000000     0.766010000000    -0.220132   
Br9      Br     0.432550000000     0.514420000000     0.730670000000    -0.208568   
Br10     Br     0.479530000000     0.558960000000     0.925970000000    -0.206329   
Br11     Br     0.391180000000     0.310650000000     0.861410000000    -0.267301   
Br12     Br     0.335220000000     0.327830000000     0.621080000000    -0.220685   
Br13     Br     0.598090000000     0.726540000000     0.517730000000    -0.215545   
Br14     Br     0.165780000000     0.945780000000     0.266010000000    -0.220247   
Br15     Br     0.432550000000     0.014420000000     0.230670000000    -0.208439   
Br16     Br     0.479530000000     0.058960000000     0.425970000000    -0.206203   
Br17     Br     0.391180000000     0.810650000000     0.361410000000    -0.267319   
Br18     Br     0.335220000000     0.827830000000     0.121080000000    -0.220719   
Br19     Br     0.598090000000     0.726540000000     0.017730000000    -0.215536   
Br20     Br     0.165780000000     0.945780000000     0.766010000000    -0.220249   
Br21     Br     0.432550000000     0.014420000000     0.730670000000    -0.208434   
Br22     Br     0.479530000000     0.058960000000     0.925970000000    -0.206212   
Br23     Br     0.391180000000     0.810650000000     0.861410000000    -0.26732    
Br24     Br     0.335220000000     0.827830000000     0.621080000000    -0.220724   
Br25     Br     0.098090000000     0.226540000000     0.517730000000    -0.214546   
Br26     Br     0.665780000000     0.445780000000     0.266010000000    -0.220517   
Br27     Br     0.932550000000     0.514420000000     0.230670000000    -0.209075   
Br28     Br     0.979530000000     0.558960000000     0.425970000000    -0.207092   
Br29     Br     0.891180000000     0.310650000000     0.361410000000    -0.267631   
Br30     Br     0.835220000000     0.327830000000     0.121080000000    -0.220768   
Br31     Br     0.098090000000     0.226540000000     0.017730000000    -0.214537   
Br32     Br     0.665780000000     0.445780000000     0.766010000000    -0.220519   
Br33     Br     0.932550000000     0.514420000000     0.730670000000    -0.209069   
Br34     Br     0.979530000000     0.558960000000     0.925970000000    -0.2071     
Br35     Br     0.891180000000     0.310650000000     0.861410000000    -0.267633   
Br36     Br     0.835220000000     0.327830000000     0.621080000000    -0.220774   
Br37     Br     0.098090000000     0.726540000000     0.517730000000    -0.21456    
Br38     Br     0.665780000000     0.945780000000     0.266010000000    -0.220642   
Br39     Br     0.932550000000     0.014420000000     0.230670000000    -0.208942   
Br40     Br     0.979530000000     0.058960000000     0.425970000000    -0.206986   
Br41     Br     0.891180000000     0.810650000000     0.361410000000    -0.267648   
Br42     Br     0.835220000000     0.827830000000     0.121080000000    -0.220812   
Br43     Br     0.098090000000     0.726540000000     0.017730000000    -0.214551   
Br44     Br     0.665780000000     0.945780000000     0.766010000000    -0.220644   
Br45     Br     0.932550000000     0.014420000000     0.730670000000    -0.208937   
Br46     Br     0.979530000000     0.058960000000     0.925970000000    -0.206995   
Br47     Br     0.891180000000     0.810650000000     0.861410000000    -0.267649   
Br48     Br     0.835220000000     0.827830000000     0.621080000000    -0.220817   
C1       C      0.357300000000     0.515810000000     0.401040000000     0.539732   
C2       C      0.331960000000     0.502070000000     0.282410000000     0.548596   
C3       C      0.200320000000     0.363870000000     0.299880000000     0.538573   
C4       C      0.350240000000     0.378710000000     0.408300000000     0.542417   
C5       C      0.336240000000     0.367180000000     0.289960000000     0.529359   
C6       C      0.214360000000     0.384390000000     0.419130000000     0.539676   
C7       C      0.410860000000     0.289710000000     0.160380000000     0.525245   
C8       C      0.423650000000     0.299570000000     0.037310000000     0.515853   
C9       C      0.428800000000     0.165590000000     0.034040000000     0.531677   
C10      C      0.547320000000     0.287150000000     0.168290000000     0.534683   
C11      C      0.559990000000     0.306490000000     0.049140000000     0.538478   
C12      C      0.405730000000     0.154280000000     0.152050000000     0.526548   
C13      C      0.160380000000     0.397820000000     0.971270000000     0.0397161  
C14      C      0.661240000000     0.319070000000     0.470370000000     0.00751508 
C15      C      0.118940000000     0.376320000000     0.002320000000     0.0438349  
C16      C      0.621740000000     0.298140000000     0.502490000000     0.162259   
C17      C      0.600260000000     0.273450000000     0.221350000000     0.0399244  
C18      C      0.601730000000     0.353290000000     0.218700000000     0.00625812 
C19      C      0.141090000000     0.294410000000     0.252970000000     0.0448197  
C20      C      0.140600000000     0.373730000000     0.251510000000     0.16245    
C21      C      0.338130000000     0.099560000000     0.203950000000     0.0372751  
C22      C      0.411300000000     0.088870000000     0.192210000000     0.00487401 
C23      C      0.318370000000     0.558830000000     0.235330000000     0.0465945  
C24      C      0.392840000000     0.549670000000     0.224260000000     0.162204   
C25      C      0.363840000000     0.108990000000     0.983320000000     0.0381253  
C26      C      0.446920000000     0.115640000000     0.981520000000     0.00533273 
C27      C      0.346460000000     0.571700000000     0.449780000000     0.0450441  
C28      C      0.428840000000     0.576090000000     0.448870000000     0.161152   
C29      C      0.400330000000     0.360860000000     0.013430000000     0.0386408  
C30      C      0.404530000000     0.304520000000     0.459410000000     0.00398594 
C31      C      0.378300000000     0.378260000000     0.981460000000     0.0544304  
C32      C      0.389170000000     0.327430000000     0.425340000000     0.166828   
C33      C      0.378050000000     0.319410000000     0.271640000000     0.0237722  
C34      C      0.342250000000     0.348490000000     0.214630000000     0.00908053 
C35      C      0.399620000000     0.302510000000     0.237740000000     0.0571943  
C36      C      0.357130000000     0.325170000000     0.181630000000     0.163389   
C37      C      0.357300000000     0.515810000000     0.901040000000     0.539645   
C38      C      0.331960000000     0.502070000000     0.782410000000     0.54864    
C39      C      0.200320000000     0.363870000000     0.799880000000     0.538589   
C40      C      0.350240000000     0.378710000000     0.908300000000     0.542416   
C41      C      0.336240000000     0.367180000000     0.789960000000     0.529359   
C42      C      0.214360000000     0.384390000000     0.919130000000     0.539628   
C43      C      0.410860000000     0.289710000000     0.660380000000     0.525244   
C44      C      0.423650000000     0.299570000000     0.537310000000     0.515851   
C45      C      0.428800000000     0.165590000000     0.534040000000     0.531658   
C46      C      0.547320000000     0.287150000000     0.668290000000     0.534683   
C47      C      0.559990000000     0.306490000000     0.549140000000     0.538474   
C48      C      0.405730000000     0.154280000000     0.652050000000     0.526547   
C49      C      0.160380000000     0.397820000000     0.471270000000     0.0397509  
C50      C      0.661240000000     0.319070000000     0.970380000000     0.00745554 
C51      C      0.118940000000     0.376320000000     0.502320000000     0.0438014  
C52      C      0.621740000000     0.298140000000     0.002490000000     0.162297   
C53      C      0.600260000000     0.273450000000     0.721350000000     0.0399208  
C54      C      0.601730000000     0.353290000000     0.718700000000     0.00625701 
C55      C      0.141090000000     0.294410000000     0.752970000000     0.0448209  
C56      C      0.140600000000     0.373730000000     0.751510000000     0.162452   
C57      C      0.338130000000     0.099560000000     0.703950000000     0.0372744  
C58      C      0.411300000000     0.088870000000     0.692210000000     0.0048545  
C59      C      0.318370000000     0.558830000000     0.735330000000     0.0465928  
C60      C      0.392840000000     0.549670000000     0.724250000000     0.162187   
C61      C      0.363840000000     0.108990000000     0.483320000000     0.0381293  
C62      C      0.446920000000     0.115640000000     0.481520000000     0.00533444 
C63      C      0.346460000000     0.571700000000     0.949780000000     0.0450458  
C64      C      0.428840000000     0.576090000000     0.948870000000     0.161151   
C65      C      0.400330000000     0.360860000000     0.513430000000     0.0386128  
C66      C      0.404530000000     0.304520000000     0.959410000000     0.00396822 
C67      C      0.378300000000     0.378260000000     0.481460000000     0.0544572  
C68      C      0.389170000000     0.327430000000     0.925340000000     0.166828   
C69      C      0.378050000000     0.319410000000     0.771640000000     0.0237766  
C70      C      0.342250000000     0.348490000000     0.714630000000     0.00908036 
C71      C      0.399620000000     0.302510000000     0.737740000000     0.0571865  
C72      C      0.357130000000     0.325170000000     0.681630000000     0.163389   
C73      C      0.357300000000     0.015810000000     0.401040000000     0.539958   
C74      C      0.331960000000     0.002070000000     0.282410000000     0.548827   
C75      C      0.200320000000     0.863870000000     0.299880000000     0.538562   
C76      C      0.350240000000     0.878710000000     0.408300000000     0.542405   
C77      C      0.336240000000     0.867180000000     0.289960000000     0.529429   
C78      C      0.214360000000     0.884390000000     0.419130000000     0.539675   
C79      C      0.410860000000     0.789710000000     0.160380000000     0.525211   
C80      C      0.423650000000     0.799570000000     0.037310000000     0.515852   
C81      C      0.428800000000     0.665590000000     0.034040000000     0.531674   
C82      C      0.547320000000     0.787140000000     0.168290000000     0.534682   
C83      C      0.559990000000     0.806490000000     0.049140000000     0.538474   
C84      C      0.405730000000     0.654280000000     0.152050000000     0.526547   
C85      C      0.160380000000     0.897820000000     0.971270000000     0.0397019  
C86      C      0.661240000000     0.819070000000     0.470370000000     0.00750971 
C87      C      0.118940000000     0.876320000000     0.002320000000     0.0438232  
C88      C      0.621740000000     0.798140000000     0.502490000000     0.162256   
C89      C      0.600260000000     0.773450000000     0.221350000000     0.0399039  
C90      C      0.601730000000     0.853290000000     0.218700000000     0.00627155 
C91      C      0.141090000000     0.794410000000     0.252970000000     0.0448201  
C92      C      0.140600000000     0.873730000000     0.251510000000     0.162447   
C93      C      0.338130000000     0.599560000000     0.203950000000     0.0372951  
C94      C      0.411300000000     0.588870000000     0.192210000000     0.00486856 
C95      C      0.318370000000     0.058820000000     0.235330000000     0.0466933  
C96      C      0.392840000000     0.049670000000     0.224260000000     0.162218   
C97      C      0.363840000000     0.608990000000     0.983320000000     0.038116   
C98      C      0.446920000000     0.615640000000     0.981520000000     0.0053294  
C99      C      0.346460000000     0.071700000000     0.449780000000     0.0450651  
C100     C      0.428840000000     0.076090000000     0.448870000000     0.161179   
C101     C      0.400330000000     0.860860000000     0.013430000000     0.0386283  
C102     C      0.404530000000     0.804520000000     0.459410000000     0.00398002 
C103     C      0.378300000000     0.878260000000     0.981460000000     0.0544175  
C104     C      0.389170000000     0.827430000000     0.425340000000     0.16682    
C105     C      0.378050000000     0.819410000000     0.271640000000     0.023735   
C106     C      0.342250000000     0.848490000000     0.214630000000     0.00910287 
C107     C      0.399620000000     0.802510000000     0.237740000000     0.0571937  
C108     C      0.357130000000     0.825170000000     0.181630000000     0.163363   
C109     C      0.357300000000     0.015810000000     0.901040000000     0.539871   
C110     C      0.331960000000     0.002070000000     0.782410000000     0.548871   
C111     C      0.200320000000     0.863870000000     0.799880000000     0.538578   
C112     C      0.350240000000     0.878710000000     0.908300000000     0.542404   
C113     C      0.336240000000     0.867180000000     0.789960000000     0.529429   
C114     C      0.214360000000     0.884390000000     0.919130000000     0.539627   
C115     C      0.410860000000     0.789710000000     0.660380000000     0.525209   
C116     C      0.423650000000     0.799570000000     0.537310000000     0.515851   
C117     C      0.428800000000     0.665590000000     0.534040000000     0.531655   
C118     C      0.547320000000     0.787140000000     0.668290000000     0.534682   
C119     C      0.559990000000     0.806490000000     0.549140000000     0.538471   
C120     C      0.405730000000     0.654280000000     0.652050000000     0.526545   
C121     C      0.160380000000     0.897820000000     0.471270000000     0.0397367  
C122     C      0.661240000000     0.819070000000     0.970380000000     0.00745015 
C123     C      0.118940000000     0.876320000000     0.502320000000     0.0437897  
C124     C      0.621740000000     0.798140000000     0.002490000000     0.162294   
C125     C      0.600260000000     0.773450000000     0.721350000000     0.0399002  
C126     C      0.601730000000     0.853290000000     0.718700000000     0.00627044 
C127     C      0.141090000000     0.794410000000     0.752970000000     0.0448212  
C128     C      0.140600000000     0.873730000000     0.751510000000     0.162448   
C129     C      0.338130000000     0.599560000000     0.703950000000     0.0372945  
C130     C      0.411300000000     0.588870000000     0.692210000000     0.00484906 
C131     C      0.318370000000     0.058820000000     0.735330000000     0.0466916  
C132     C      0.392840000000     0.049670000000     0.724250000000     0.162202   
C133     C      0.363840000000     0.608990000000     0.483320000000     0.03812    
C134     C      0.446920000000     0.615640000000     0.481520000000     0.00533111 
C135     C      0.346460000000     0.071700000000     0.949780000000     0.0450668  
C136     C      0.428840000000     0.076090000000     0.948870000000     0.161179   
C137     C      0.400330000000     0.860860000000     0.513430000000     0.0386004  
C138     C      0.404530000000     0.804520000000     0.959410000000     0.00396229 
C139     C      0.378300000000     0.878260000000     0.481460000000     0.0544443  
C140     C      0.389170000000     0.827430000000     0.925340000000     0.16682    
C141     C      0.378050000000     0.819410000000     0.771640000000     0.0237394  
C142     C      0.342250000000     0.848490000000     0.714630000000     0.0091027  
C143     C      0.399620000000     0.802510000000     0.737740000000     0.0571859  
C144     C      0.357130000000     0.825170000000     0.681630000000     0.163363   
C145     C      0.857300000000     0.515810000000     0.401040000000     0.539513   
C146     C      0.831960000000     0.502070000000     0.282410000000     0.548577   
C147     C      0.700320000000     0.363870000000     0.299880000000     0.538408   
C148     C      0.850240000000     0.378710000000     0.408300000000     0.542282   
C149     C      0.836240000000     0.367180000000     0.289960000000     0.529321   
C150     C      0.714360000000     0.384390000000     0.419130000000     0.539633   
C151     C      0.910870000000     0.289710000000     0.160380000000     0.52523    
C152     C      0.923650000000     0.299570000000     0.037310000000     0.51555    
C153     C      0.928790000000     0.165590000000     0.034040000000     0.531592   
C154     C      0.047320000000     0.287150000000     0.168290000000     0.534294   
C155     C      0.059990000000     0.306490000000     0.049140000000     0.538088   
C156     C      0.905730000000     0.154280000000     0.152050000000     0.526294   
C157     C      0.660380000000     0.397820000000     0.971270000000     0.0396177  
C158     C      0.161240000000     0.319070000000     0.470370000000     0.00761352 
C159     C      0.618940000000     0.376320000000     0.002320000000     0.0437397  
C160     C      0.121740000000     0.298140000000     0.502490000000     0.162288   
C161     C      0.100260000000     0.273450000000     0.221350000000     0.0400352  
C162     C      0.101730000000     0.353290000000     0.218700000000     0.00637851 
C163     C      0.641090000000     0.294410000000     0.252970000000     0.0446976  
C164     C      0.640590000000     0.373730000000     0.251510000000     0.162334   
C165     C      0.838130000000     0.099560000000     0.203950000000     0.0372037  
C166     C      0.911300000000     0.088870000000     0.192210000000     0.00476104 
C167     C      0.818370000000     0.558830000000     0.235330000000     0.046565   
C168     C      0.892840000000     0.549670000000     0.224260000000     0.162173   
C169     C      0.863840000000     0.108990000000     0.983320000000     0.0380668  
C170     C      0.946920000000     0.115640000000     0.981520000000     0.00523532 
C171     C      0.846460000000     0.571700000000     0.449780000000     0.0450188  
C172     C      0.928840000000     0.576090000000     0.448870000000     0.161109   
C173     C      0.900330000000     0.360860000000     0.013430000000     0.0385238  
C174     C      0.904530000000     0.304520000000     0.459410000000     0.00385634 
C175     C      0.878300000000     0.378260000000     0.981460000000     0.0543857  
C176     C      0.889170000000     0.327430000000     0.425340000000     0.166748   
C177     C      0.878050000000     0.319410000000     0.271640000000     0.0236616  
C178     C      0.842250000000     0.348490000000     0.214630000000     0.00902865 
C179     C      0.899620000000     0.302510000000     0.237740000000     0.0570967  
C180     C      0.857130000000     0.325170000000     0.181630000000     0.163347   
C181     C      0.857300000000     0.515810000000     0.901040000000     0.539426   
C182     C      0.831960000000     0.502070000000     0.782410000000     0.548621   
C183     C      0.700320000000     0.363870000000     0.799880000000     0.538424   
C184     C      0.850240000000     0.378710000000     0.908300000000     0.54228    
C185     C      0.836240000000     0.367180000000     0.789960000000     0.529321   
C186     C      0.714360000000     0.384390000000     0.919130000000     0.539584   
C187     C      0.910870000000     0.289710000000     0.660380000000     0.525228   
C188     C      0.923650000000     0.299570000000     0.537310000000     0.515548   
C189     C      0.928790000000     0.165590000000     0.534040000000     0.531572   
C190     C      0.047320000000     0.287150000000     0.668290000000     0.534294   
C191     C      0.059990000000     0.306490000000     0.549140000000     0.538084   
C192     C      0.905730000000     0.154280000000     0.652050000000     0.526292   
C193     C      0.660380000000     0.397820000000     0.471270000000     0.0396523  
C194     C      0.161240000000     0.319070000000     0.970380000000     0.00755373 
C195     C      0.618940000000     0.376320000000     0.502320000000     0.0437063  
C196     C      0.121740000000     0.298140000000     0.002490000000     0.162325   
C197     C      0.100260000000     0.273450000000     0.721350000000     0.0400315  
C198     C      0.101730000000     0.353290000000     0.718700000000     0.00637738 
C199     C      0.641090000000     0.294410000000     0.752970000000     0.0446988  
C200     C      0.640590000000     0.373730000000     0.751510000000     0.162336   
C201     C      0.838130000000     0.099560000000     0.703950000000     0.037203   
C202     C      0.911300000000     0.088870000000     0.692210000000     0.00474152 
C203     C      0.818370000000     0.558830000000     0.735330000000     0.0465633  
C204     C      0.892840000000     0.549670000000     0.724250000000     0.162157   
C205     C      0.863840000000     0.108990000000     0.483320000000     0.0380707  
C206     C      0.946920000000     0.115640000000     0.481520000000     0.005237   
C207     C      0.846460000000     0.571700000000     0.949780000000     0.0450205  
C208     C      0.928840000000     0.576090000000     0.948870000000     0.161109   
C209     C      0.900330000000     0.360860000000     0.513430000000     0.038496   
C210     C      0.904530000000     0.304520000000     0.959410000000     0.00383875 
C211     C      0.878300000000     0.378260000000     0.481460000000     0.0544123  
C212     C      0.889170000000     0.327430000000     0.925340000000     0.166748   
C213     C      0.878050000000     0.319410000000     0.771640000000     0.023666   
C214     C      0.842250000000     0.348490000000     0.714630000000     0.00902848 
C215     C      0.899620000000     0.302510000000     0.737740000000     0.0570889  
C216     C      0.857130000000     0.325170000000     0.681630000000     0.163347   
C217     C      0.857300000000     0.015810000000     0.401040000000     0.539757   
C218     C      0.831960000000     0.002070000000     0.282410000000     0.548825   
C219     C      0.700320000000     0.863870000000     0.299880000000     0.538526   
C220     C      0.850240000000     0.878710000000     0.408300000000     0.542473   
C221     C      0.836240000000     0.867180000000     0.289960000000     0.529404   
C222     C      0.714360000000     0.884390000000     0.419130000000     0.539642   
C223     C      0.910860000000     0.789710000000     0.160380000000     0.525134   
C224     C      0.923650000000     0.799570000000     0.037310000000     0.515548   
C225     C      0.928800000000     0.665590000000     0.034040000000     0.531579   
C226     C      0.047320000000     0.787140000000     0.168290000000     0.534291   
C227     C      0.059990000000     0.806490000000     0.049140000000     0.538085   
C228     C      0.905730000000     0.654280000000     0.152050000000     0.526291   
C229     C      0.660380000000     0.897820000000     0.971270000000     0.0396045  
C230     C      0.161240000000     0.819070000000     0.470370000000     0.00760769 
C231     C      0.618940000000     0.876320000000     0.002320000000     0.0437278  
C232     C      0.121740000000     0.798140000000     0.502490000000     0.162286   
C233     C      0.100260000000     0.773450000000     0.221350000000     0.0400211  
C234     C      0.101730000000     0.853290000000     0.218700000000     0.00638259 
C235     C      0.641090000000     0.794410000000     0.252970000000     0.0447074  
C236     C      0.640600000000     0.873730000000     0.251510000000     0.162356   
C237     C      0.838130000000     0.599560000000     0.203950000000     0.0372322  
C238     C      0.911300000000     0.588870000000     0.192210000000     0.00475633 
C239     C      0.818370000000     0.058820000000     0.235330000000     0.046684   
C240     C      0.892840000000     0.049670000000     0.224260000000     0.162189   
C241     C      0.863840000000     0.608990000000     0.983320000000     0.038061   
C242     C      0.946920000000     0.615640000000     0.981520000000     0.00522062 
C243     C      0.846460000000     0.071700000000     0.449780000000     0.0450271  
C244     C      0.928840000000     0.076090000000     0.448870000000     0.161134   
C245     C      0.900330000000     0.860860000000     0.013430000000     0.0384795  
C246     C      0.904530000000     0.804520000000     0.459410000000     0.00385781 
C247     C      0.878310000000     0.878260000000     0.981460000000     0.0544168  
C248     C      0.889170000000     0.827430000000     0.425340000000     0.166715   
C249     C      0.878040000000     0.819410000000     0.271640000000     0.0236814  
C250     C      0.842250000000     0.848490000000     0.214630000000     0.0090254  
C251     C      0.899620000000     0.802510000000     0.237740000000     0.0570833  
C252     C      0.857130000000     0.825170000000     0.181630000000     0.163325   
C253     C      0.857300000000     0.015810000000     0.901040000000     0.53967    
C254     C      0.831960000000     0.002070000000     0.782410000000     0.548869   
C255     C      0.700320000000     0.863870000000     0.799880000000     0.538542   
C256     C      0.850240000000     0.878710000000     0.908300000000     0.542472   
C257     C      0.836240000000     0.867180000000     0.789960000000     0.529403   
C258     C      0.714360000000     0.884390000000     0.919130000000     0.539593   
C259     C      0.910860000000     0.789710000000     0.660380000000     0.525133   
C260     C      0.923650000000     0.799570000000     0.537310000000     0.515546   
C261     C      0.928800000000     0.665590000000     0.534040000000     0.53156    
C262     C      0.047320000000     0.787140000000     0.668290000000     0.534291   
C263     C      0.059990000000     0.806490000000     0.549140000000     0.538082   
C264     C      0.905730000000     0.654280000000     0.652050000000     0.52629    
C265     C      0.660380000000     0.897820000000     0.471270000000     0.0396391  
C266     C      0.161240000000     0.819070000000     0.970380000000     0.00754787 
C267     C      0.618940000000     0.876320000000     0.502320000000     0.0436945  
C268     C      0.121740000000     0.798140000000     0.002490000000     0.162323   
C269     C      0.100260000000     0.773450000000     0.721350000000     0.0400174  
C270     C      0.101730000000     0.853290000000     0.718700000000     0.00638146 
C271     C      0.641090000000     0.794410000000     0.752970000000     0.0447086  
C272     C      0.640600000000     0.873730000000     0.751510000000     0.162357   
C273     C      0.838130000000     0.599560000000     0.703950000000     0.0372316  
C274     C      0.911300000000     0.588870000000     0.692210000000     0.00473682 
C275     C      0.818370000000     0.058820000000     0.735330000000     0.0466823  
C276     C      0.892840000000     0.049670000000     0.724250000000     0.162173   
C277     C      0.863840000000     0.608990000000     0.483320000000     0.0380649  
C278     C      0.946920000000     0.615640000000     0.481520000000     0.0052223  
C279     C      0.846460000000     0.071700000000     0.949780000000     0.0450288  
C280     C      0.928840000000     0.076090000000     0.948870000000     0.161133   
C281     C      0.900330000000     0.860860000000     0.513430000000     0.0384517  
C282     C      0.904530000000     0.804520000000     0.959410000000     0.00384022 
C283     C      0.878310000000     0.878260000000     0.481460000000     0.0544435  
C284     C      0.889170000000     0.827430000000     0.925340000000     0.166716   
C285     C      0.878040000000     0.819410000000     0.771640000000     0.0236857  
C286     C      0.842250000000     0.848490000000     0.714630000000     0.00902524 
C287     C      0.899620000000     0.802510000000     0.737740000000     0.0570755  
C288     C      0.857130000000     0.825170000000     0.681630000000     0.163325   
Fe1      Fe     0.265580000000     0.451720000000     0.351620000000     1.37878    
Fe2      Fe     0.266410000000     0.354850000000     0.357900000000     1.37386    
Fe3      Fe     0.362430000000     0.449660000000     0.341680000000     1.3848     
Fe4      Fe     0.397980000000     0.218870000000     0.092650000000     1.35058    
Fe5      Fe     0.495960000000     0.218830000000     0.101470000000     1.38471    
Fe6      Fe     0.493500000000     0.314720000000     0.106970000000     1.35585    
Fe7      Fe     0.265580000000     0.451720000000     0.851610000000     1.37878    
Fe8      Fe     0.266410000000     0.354850000000     0.857900000000     1.37386    
Fe9      Fe     0.362430000000     0.449660000000     0.841680000000     1.38479    
Fe10     Fe     0.397980000000     0.218870000000     0.592650000000     1.35058    
Fe11     Fe     0.495960000000     0.218830000000     0.601470000000     1.3847     
Fe12     Fe     0.493500000000     0.314720000000     0.606970000000     1.35585    
Fe13     Fe     0.265580000000     0.951720000000     0.351620000000     1.37864    
Fe14     Fe     0.266410000000     0.854850000000     0.357900000000     1.37386    
Fe15     Fe     0.362430000000     0.949660000000     0.341680000000     1.38465    
Fe16     Fe     0.397980000000     0.718870000000     0.092650000000     1.35058    
Fe17     Fe     0.495960000000     0.718830000000     0.101470000000     1.38472    
Fe18     Fe     0.493500000000     0.814720000000     0.106970000000     1.35582    
Fe19     Fe     0.265580000000     0.951720000000     0.851610000000     1.37864    
Fe20     Fe     0.266410000000     0.854850000000     0.857900000000     1.37386    
Fe21     Fe     0.362430000000     0.949660000000     0.841680000000     1.38465    
Fe22     Fe     0.397980000000     0.718870000000     0.592650000000     1.35058    
Fe23     Fe     0.495960000000     0.718830000000     0.601470000000     1.38471    
Fe24     Fe     0.493500000000     0.814720000000     0.606970000000     1.35582    
Fe25     Fe     0.765580000000     0.451720000000     0.351620000000     1.37861    
Fe26     Fe     0.766410000000     0.354850000000     0.357900000000     1.37376    
Fe27     Fe     0.862430000000     0.449660000000     0.341680000000     1.38458    
Fe28     Fe     0.897980000000     0.218870000000     0.092650000000     1.35044    
Fe29     Fe     0.995960000000     0.218830000000     0.101470000000     1.38202    
Fe30     Fe     0.993500000000     0.314720000000     0.106970000000     1.35323    
Fe31     Fe     0.765580000000     0.451720000000     0.851610000000     1.37861    
Fe32     Fe     0.766410000000     0.354850000000     0.857900000000     1.37376    
Fe33     Fe     0.862430000000     0.449660000000     0.841680000000     1.38457    
Fe34     Fe     0.897980000000     0.218870000000     0.592650000000     1.35043    
Fe35     Fe     0.995960000000     0.218830000000     0.601470000000     1.38202    
Fe36     Fe     0.993500000000     0.314720000000     0.606970000000     1.35322    
Fe37     Fe     0.765580000000     0.951720000000     0.351620000000     1.37861    
Fe38     Fe     0.766410000000     0.854850000000     0.357900000000     1.37381    
Fe39     Fe     0.862430000000     0.949660000000     0.341680000000     1.38455    
Fe40     Fe     0.897980000000     0.718870000000     0.092650000000     1.35042    
Fe41     Fe     0.995960000000     0.718830000000     0.101470000000     1.38204    
Fe42     Fe     0.993500000000     0.814720000000     0.106970000000     1.35318    
Fe43     Fe     0.765580000000     0.951720000000     0.851610000000     1.37861    
Fe44     Fe     0.766410000000     0.854850000000     0.857900000000     1.37381    
Fe45     Fe     0.862430000000     0.949660000000     0.841680000000     1.38454    
Fe46     Fe     0.897980000000     0.718870000000     0.592650000000     1.35042    
Fe47     Fe     0.995960000000     0.718830000000     0.601470000000     1.38204    
Fe48     Fe     0.993500000000     0.814720000000     0.606970000000     1.35318    
H1       H      0.103320000000     0.400370000000     0.014110000000     0.0427926  
H2       H      0.174340000000     0.436980000000     0.959230000000     0.0413024  
H3       H      0.676720000000     0.295020000000     0.458120000000     0.0699795  
H4       H      0.155520000000     0.269690000000     0.265610000000     0.044576   
H5       H      0.585550000000     0.233940000000     0.209920000000     0.0452198  
H6       H      0.587460000000     0.377990000000     0.205530000000     0.0688076  
H7       H      0.281860000000     0.548610000000     0.252250000000     0.0504252  
H8       H      0.315620000000     0.118480000000     0.196870000000     0.0463411  
H9       H      0.447840000000     0.098760000000     0.175440000000     0.0697907  
H10      H      0.306190000000     0.555710000000     0.438750000000     0.0430982  
H11      H      0.336550000000     0.120460000000     0.995900000000     0.0440155  
H12      H      0.486880000000     0.132500000000     0.993480000000     0.0783386  
H13      H      0.367370000000     0.406690000000     0.991390000000     0.0447475  
H14      H      0.406470000000     0.377010000000     0.047050000000     0.0622726  
H15      H      0.414490000000     0.275250000000     0.450170000000     0.0662915  
H16      H      0.423400000000     0.285760000000     0.247700000000     0.0447797  
H17      H      0.384770000000     0.315720000000     0.308260000000     0.10925    
H18      H      0.320330000000     0.367370000000     0.204840000000     0.0694773  
H19      H      0.103320000000     0.400370000000     0.514110000000     0.0427954  
H20      H      0.174340000000     0.436980000000     0.459230000000     0.0412985  
H21      H      0.676720000000     0.295020000000     0.958120000000     0.0699927  
H22      H      0.155520000000     0.269690000000     0.765610000000     0.0445747  
H23      H      0.585550000000     0.233940000000     0.709930000000     0.0452174  
H24      H      0.587460000000     0.377990000000     0.705530000000     0.0688073  
H25      H      0.281860000000     0.548610000000     0.752250000000     0.0504254  
H26      H      0.315620000000     0.118480000000     0.696870000000     0.0463401  
H27      H      0.447840000000     0.098760000000     0.675440000000     0.0697943  
H28      H      0.306190000000     0.555710000000     0.938750000000     0.0430939  
H29      H      0.336550000000     0.120460000000     0.495910000000     0.0440264  
H30      H      0.486880000000     0.132500000000     0.493480000000     0.078346   
H31      H      0.367370000000     0.406690000000     0.491390000000     0.0447457  
H32      H      0.406470000000     0.377010000000     0.547050000000     0.0622755  
H33      H      0.414490000000     0.275250000000     0.950170000000     0.0662903  
H34      H      0.423400000000     0.285760000000     0.747690000000     0.0447826  
H35      H      0.384770000000     0.315720000000     0.808260000000     0.109249   
H36      H      0.320330000000     0.367370000000     0.704840000000     0.0694762  
H37      H      0.103320000000     0.900370000000     0.014110000000     0.0427642  
H38      H      0.174340000000     0.936980000000     0.959230000000     0.0412614  
H39      H      0.676720000000     0.795020000000     0.458120000000     0.0699757  
H40      H      0.155520000000     0.769690000000     0.265610000000     0.0445708  
H41      H      0.585550000000     0.733940000000     0.209920000000     0.0452151  
H42      H      0.587460000000     0.877990000000     0.205530000000     0.0687864  
H43      H      0.281860000000     0.048610000000     0.252250000000     0.050451   
H44      H      0.315620000000     0.618480000000     0.196870000000     0.04632    
H45      H      0.447840000000     0.598760000000     0.175440000000     0.06978    
H46      H      0.306190000000     0.055710000000     0.438750000000     0.0431297  
H47      H      0.336550000000     0.620460000000     0.995900000000     0.044001   
H48      H      0.486880000000     0.632500000000     0.993480000000     0.0783307  
H49      H      0.367370000000     0.906690000000     0.991390000000     0.0447146  
H50      H      0.406470000000     0.877010000000     0.047050000000     0.0622506  
H51      H      0.414490000000     0.775250000000     0.450170000000     0.0662892  
H52      H      0.423400000000     0.785760000000     0.247700000000     0.044778   
H53      H      0.384770000000     0.815720000000     0.308260000000     0.109256   
H54      H      0.320330000000     0.867370000000     0.204840000000     0.0694453  
H55      H      0.103320000000     0.900370000000     0.514110000000     0.042767   
H56      H      0.174340000000     0.936980000000     0.459230000000     0.0412575  
H57      H      0.676720000000     0.795020000000     0.958120000000     0.0699889  
H58      H      0.155520000000     0.769690000000     0.765610000000     0.0445696  
H59      H      0.585550000000     0.733940000000     0.709930000000     0.0452127  
H60      H      0.587460000000     0.877990000000     0.705530000000     0.0687861  
H61      H      0.281860000000     0.048610000000     0.752250000000     0.0504512  
H62      H      0.315620000000     0.618480000000     0.696870000000     0.046319   
H63      H      0.447840000000     0.598760000000     0.675440000000     0.0697837  
H64      H      0.306190000000     0.055710000000     0.938750000000     0.0431255  
H65      H      0.336550000000     0.620460000000     0.495910000000     0.0440119  
H66      H      0.486880000000     0.632500000000     0.493480000000     0.0783381  
H67      H      0.367370000000     0.906690000000     0.491390000000     0.0447128  
H68      H      0.406470000000     0.877010000000     0.547050000000     0.0622535  
H69      H      0.414490000000     0.775250000000     0.950170000000     0.0662879  
H70      H      0.423400000000     0.785760000000     0.747690000000     0.0447808  
H71      H      0.384770000000     0.815720000000     0.808260000000     0.109255   
H72      H      0.320330000000     0.867370000000     0.704840000000     0.0694441  
H73      H      0.603320000000     0.400370000000     0.014110000000     0.0425425  
H74      H      0.674340000000     0.436980000000     0.959230000000     0.041193   
H75      H      0.176720000000     0.295020000000     0.458120000000     0.0700385  
H76      H      0.655520000000     0.269690000000     0.265610000000     0.0444528  
H77      H      0.085550000000     0.233940000000     0.209920000000     0.0455017  
H78      H      0.087460000000     0.377990000000     0.205530000000     0.0690877  
H79      H      0.781860000000     0.548610000000     0.252250000000     0.0503725  
H80      H      0.815620000000     0.118480000000     0.196870000000     0.046291   
H81      H      0.947840000000     0.098760000000     0.175440000000     0.0695634  
H82      H      0.806180000000     0.555710000000     0.438750000000     0.043048   
H83      H      0.836550000000     0.120460000000     0.995900000000     0.0439719  
H84      H      0.986880000000     0.132500000000     0.993480000000     0.0779909  
H85      H      0.867360000000     0.406690000000     0.991390000000     0.0447167  
H86      H      0.906470000000     0.377010000000     0.047050000000     0.0621916  
H87      H      0.914490000000     0.275250000000     0.450170000000     0.066133   
H88      H      0.923400000000     0.285760000000     0.247700000000     0.0445505  
H89      H      0.884770000000     0.315720000000     0.308260000000     0.109223   
H90      H      0.820330000000     0.367370000000     0.204840000000     0.0694707  
H91      H      0.603320000000     0.400370000000     0.514110000000     0.0425452  
H92      H      0.674340000000     0.436980000000     0.459230000000     0.0411891  
H93      H      0.176720000000     0.295020000000     0.958120000000     0.0700517  
H94      H      0.655520000000     0.269690000000     0.765610000000     0.0444515  
H95      H      0.085550000000     0.233940000000     0.709930000000     0.0454994  
H96      H      0.087460000000     0.377990000000     0.705530000000     0.0690874  
H97      H      0.781860000000     0.548610000000     0.752250000000     0.0503727  
H98      H      0.815620000000     0.118480000000     0.696870000000     0.04629    
H99      H      0.947840000000     0.098760000000     0.675440000000     0.069567   
H100     H      0.806180000000     0.555710000000     0.938750000000     0.0430438  
H101     H      0.836550000000     0.120460000000     0.495910000000     0.0439827  
H102     H      0.986880000000     0.132500000000     0.493480000000     0.0779982  
H103     H      0.867360000000     0.406690000000     0.491390000000     0.0447149  
H104     H      0.906470000000     0.377010000000     0.547050000000     0.0621945  
H105     H      0.914490000000     0.275250000000     0.950170000000     0.0661318  
H106     H      0.923400000000     0.285760000000     0.747690000000     0.0445534  
H107     H      0.884770000000     0.315720000000     0.808260000000     0.109222   
H108     H      0.820330000000     0.367370000000     0.704840000000     0.0694696  
H109     H      0.603320000000     0.900370000000     0.014110000000     0.0425153  
H110     H      0.674340000000     0.936980000000     0.959230000000     0.0411538  
H111     H      0.176720000000     0.795020000000     0.458120000000     0.0700352  
H112     H      0.655520000000     0.769690000000     0.265610000000     0.0444415  
H113     H      0.085550000000     0.733940000000     0.209920000000     0.0454983  
H114     H      0.087460000000     0.877990000000     0.205530000000     0.0690665  
H115     H      0.781850000000     0.048610000000     0.252250000000     0.0503983  
H116     H      0.815620000000     0.618480000000     0.196870000000     0.0462668  
H117     H      0.947840000000     0.598760000000     0.175440000000     0.0695521  
H118     H      0.806190000000     0.055710000000     0.438750000000     0.0430906  
H119     H      0.836550000000     0.620460000000     0.995900000000     0.0439564  
H120     H      0.986880000000     0.632500000000     0.993480000000     0.0779832  
H121     H      0.867370000000     0.906690000000     0.991390000000     0.0446742  
H122     H      0.906470000000     0.877010000000     0.047050000000     0.0621783  
H123     H      0.914490000000     0.775250000000     0.450170000000     0.0661303  
H124     H      0.923400000000     0.785760000000     0.247700000000     0.0445535  
H125     H      0.884770000000     0.815720000000     0.308260000000     0.109208   
H126     H      0.820340000000     0.867370000000     0.204840000000     0.0694476  
H127     H      0.603320000000     0.900370000000     0.514110000000     0.042518   
H128     H      0.674340000000     0.936980000000     0.459230000000     0.04115    
H129     H      0.176720000000     0.795020000000     0.958120000000     0.0700484  
H130     H      0.655520000000     0.769690000000     0.765610000000     0.0444403  
H131     H      0.085550000000     0.733940000000     0.709930000000     0.045496   
H132     H      0.087460000000     0.877990000000     0.705530000000     0.0690662  
H133     H      0.781850000000     0.048610000000     0.752250000000     0.0503985  
H134     H      0.815620000000     0.618480000000     0.696870000000     0.0462658  
H135     H      0.947840000000     0.598760000000     0.675440000000     0.0695558  
H136     H      0.806190000000     0.055710000000     0.938750000000     0.0430864  
H137     H      0.836550000000     0.620460000000     0.495910000000     0.0439673  
H138     H      0.986880000000     0.632500000000     0.493480000000     0.0779905  
H139     H      0.867370000000     0.906690000000     0.491390000000     0.0446724  
H140     H      0.906470000000     0.877010000000     0.547050000000     0.0621812  
H141     H      0.914490000000     0.775250000000     0.950170000000     0.0661291  
H142     H      0.923400000000     0.785760000000     0.747690000000     0.0445563  
H143     H      0.884770000000     0.815720000000     0.808260000000     0.109208   
H144     H      0.820340000000     0.867370000000     0.704840000000     0.0694465  
N1       N      0.179830000000     0.368190000000     0.454280000000    -0.190886   
N2       N      0.599710000000     0.326630000000     0.018040000000    -0.209815   
N3       N      0.582110000000     0.303730000000     0.203310000000    -0.189593   
N4       N      0.161100000000     0.344350000000     0.268270000000    -0.209485   
N5       N      0.384860000000     0.114670000000     0.182820000000    -0.187606   
N6       N      0.346880000000     0.535620000000     0.246790000000    -0.211502   
N7       N      0.413860000000     0.130780000000     0.999350000000    -0.188295   
N8       N      0.378140000000     0.554170000000     0.433050000000    -0.209747   
N9       N      0.409740000000     0.321470000000     0.003320000000    -0.182697   
N10      N      0.372670000000     0.361330000000     0.438080000000    -0.213671   
N11      N      0.352420000000     0.345080000000     0.258840000000    -0.183302   
N12      N      0.388570000000     0.304980000000     0.192970000000    -0.209808   
N13      N      0.179830000000     0.368190000000     0.954280000000    -0.190863   
N14      N      0.599710000000     0.326630000000     0.518040000000    -0.209806   
N15      N      0.582110000000     0.303730000000     0.703310000000    -0.189592   
N16      N      0.161100000000     0.344350000000     0.768270000000    -0.209488   
N17      N      0.384860000000     0.114670000000     0.682820000000    -0.187602   
N18      N      0.346880000000     0.535620000000     0.746790000000    -0.211493   
N19      N      0.413860000000     0.130780000000     0.499350000000    -0.188285   
N20      N      0.378140000000     0.554170000000     0.933060000000    -0.209705   
N21      N      0.409740000000     0.321470000000     0.503320000000    -0.182704   
N22      N      0.372670000000     0.361330000000     0.938080000000    -0.213669   
N23      N      0.352420000000     0.345080000000     0.758840000000    -0.183302   
N24      N      0.388570000000     0.304980000000     0.692970000000    -0.209808   
N25      N      0.179830000000     0.868190000000     0.454280000000    -0.190892   
N26      N      0.599710000000     0.826630000000     0.018040000000    -0.209818   
N27      N      0.582110000000     0.803730000000     0.203310000000    -0.189597   
N28      N      0.161100000000     0.844350000000     0.268270000000    -0.209486   
N29      N      0.384860000000     0.614670000000     0.182820000000    -0.187614   
N30      N      0.346880000000     0.035620000000     0.246790000000    -0.211545   
N31      N      0.413860000000     0.630780000000     0.999350000000    -0.188299   
N32      N      0.378140000000     0.054170000000     0.433050000000    -0.209769   
N33      N      0.409740000000     0.821470000000     0.003320000000    -0.1827     
N34      N      0.372670000000     0.861330000000     0.438080000000    -0.213675   
N35      N      0.352420000000     0.845090000000     0.258840000000    -0.183355   
N36      N      0.388570000000     0.804980000000     0.192970000000    -0.209809   
N37      N      0.179830000000     0.868190000000     0.954280000000    -0.190868   
N38      N      0.599710000000     0.826630000000     0.518040000000    -0.209809   
N39      N      0.582110000000     0.803730000000     0.703310000000    -0.189595   
N40      N      0.161100000000     0.844350000000     0.768270000000    -0.209489   
N41      N      0.384860000000     0.614670000000     0.682820000000    -0.18761    
N42      N      0.346880000000     0.035620000000     0.746790000000    -0.211536   
N43      N      0.413860000000     0.630780000000     0.499350000000    -0.188289   
N44      N      0.378140000000     0.054170000000     0.933060000000    -0.209728   
N45      N      0.409740000000     0.821470000000     0.503320000000    -0.182707   
N46      N      0.372670000000     0.861330000000     0.938080000000    -0.213672   
N47      N      0.352420000000     0.845090000000     0.758840000000    -0.183356   
N48      N      0.388570000000     0.804980000000     0.692970000000    -0.209809   
N49      N      0.679830000000     0.368190000000     0.454280000000    -0.190896   
N50      N      0.099710000000     0.326630000000     0.018040000000    -0.209642   
N51      N      0.082110000000     0.303730000000     0.203310000000    -0.18941    
N52      N      0.661100000000     0.344350000000     0.268270000000    -0.209451   
N53      N      0.884860000000     0.114670000000     0.182820000000    -0.187604   
N54      N      0.846880000000     0.535620000000     0.246790000000    -0.211513   
N55      N      0.913860000000     0.130780000000     0.999350000000    -0.188325   
N56      N      0.878140000000     0.554170000000     0.433050000000    -0.209727   
N57      N      0.909740000000     0.321470000000     0.003320000000    -0.182709   
N58      N      0.872670000000     0.361330000000     0.438080000000    -0.213664   
N59      N      0.852420000000     0.345080000000     0.258840000000    -0.183304   
N60      N      0.888570000000     0.304980000000     0.192970000000    -0.209802   
N61      N      0.679830000000     0.368190000000     0.954280000000    -0.190873   
N62      N      0.099710000000     0.326630000000     0.518040000000    -0.209633   
N63      N      0.082110000000     0.303730000000     0.703310000000    -0.189408   
N64      N      0.661100000000     0.344350000000     0.768270000000    -0.209454   
N65      N      0.884860000000     0.114670000000     0.682820000000    -0.187601   
N66      N      0.846880000000     0.535620000000     0.746790000000    -0.211505   
N67      N      0.913860000000     0.130780000000     0.499350000000    -0.188315   
N68      N      0.878140000000     0.554170000000     0.933060000000    -0.209685   
N69      N      0.909740000000     0.321470000000     0.503320000000    -0.182716   
N70      N      0.872670000000     0.361330000000     0.938080000000    -0.213661   
N71      N      0.852420000000     0.345080000000     0.758840000000    -0.183305   
N72      N      0.888570000000     0.304980000000     0.692970000000    -0.209802   
N73      N      0.679830000000     0.868190000000     0.454280000000    -0.190903   
N74      N      0.099710000000     0.826630000000     0.018040000000    -0.209644   
N75      N      0.082110000000     0.803730000000     0.203310000000    -0.189412   
N76      N      0.661100000000     0.844350000000     0.268270000000    -0.209505   
N77      N      0.884860000000     0.614670000000     0.182820000000    -0.187614   
N78      N      0.846880000000     0.035620000000     0.246790000000    -0.211562   
N79      N      0.913860000000     0.630780000000     0.999350000000    -0.188331   
N80      N      0.878140000000     0.054170000000     0.433050000000    -0.20975    
N81      N      0.909740000000     0.821470000000     0.003320000000    -0.182708   
N82      N      0.872660000000     0.861330000000     0.438080000000    -0.21374    
N83      N      0.852420000000     0.845090000000     0.258840000000    -0.183372   
N84      N      0.888570000000     0.804980000000     0.192970000000    -0.209837   
N85      N      0.679830000000     0.868190000000     0.954280000000    -0.19088    
N86      N      0.099710000000     0.826630000000     0.518040000000    -0.209635   
N87      N      0.082110000000     0.803730000000     0.703310000000    -0.18941    
N88      N      0.661100000000     0.844350000000     0.768270000000    -0.209508   
N89      N      0.884860000000     0.614670000000     0.682820000000    -0.18761    
N90      N      0.846880000000     0.035620000000     0.746790000000    -0.211554   
N91      N      0.913860000000     0.630780000000     0.499350000000    -0.188321   
N92      N      0.878140000000     0.054170000000     0.933060000000    -0.209708   
N93      N      0.909740000000     0.821470000000     0.503320000000    -0.182715   
N94      N      0.872660000000     0.861330000000     0.938080000000    -0.213738   
N95      N      0.852420000000     0.845090000000     0.758840000000    -0.183373   
N96      N      0.888570000000     0.804980000000     0.692970000000    -0.209836   
O1       O      0.366440000000     0.501930000000     0.307160000000    -0.489527   
O2       O      0.301740000000     0.362030000000     0.410090000000    -0.491378   
O3       O      0.284780000000     0.475420000000     0.294110000000    -0.486756   
O4       O      0.318420000000     0.509790000000     0.378100000000    -0.499012   
O5       O      0.352830000000     0.415130000000     0.288790000000    -0.476904   
O6       O      0.214650000000     0.350830000000     0.393550000000    -0.506418   
O7       O      0.297970000000     0.419030000000     0.350580000000    -0.888251   
O8       O      0.228830000000     0.343840000000     0.306150000000    -0.492408   
O9       O      0.206110000000     0.400330000000     0.325350000000    -0.481133   
O10      O      0.375710000000     0.486320000000     0.393810000000    -0.477561   
O11      O      0.242500000000     0.431580000000     0.409180000000    -0.496314   
O12      O      0.310130000000     0.341430000000     0.323510000000    -0.485997   
O13      O      0.375960000000     0.405440000000     0.374900000000    -0.478076   
O14      O      0.448090000000     0.325780000000     0.071700000000    -0.476368   
O15      O      0.519300000000     0.239790000000     0.158780000000    -0.493559   
O16      O      0.405790000000     0.251420000000     0.038450000000    -0.479674   
O17      O      0.384910000000     0.263690000000     0.126450000000    -0.466034   
O18      O      0.530600000000     0.325620000000     0.054920000000    -0.491709   
O19      O      0.444080000000     0.160670000000     0.128220000000    -0.498628   
O20      O      0.462720000000     0.250500000000     0.100450000000    -0.881728   
O21      O      0.476210000000     0.194430000000     0.044300000000    -0.483658   
O22      O      0.394210000000     0.166350000000     0.058450000000    -0.499994   
O23      O      0.459510000000     0.307670000000     0.160210000000    -0.485024   
O24      O      0.386260000000     0.183080000000     0.145390000000    -0.488408   
O25      O      0.554810000000     0.270540000000     0.074920000000    -0.483591   
O26      O      0.546300000000     0.320290000000     0.142520000000    -0.499887   
O27      O      0.366440000000     0.501930000000     0.807160000000    -0.489543   
O28      O      0.301740000000     0.362030000000     0.910090000000    -0.491377   
O29      O      0.284780000000     0.475420000000     0.794110000000    -0.486882   
O30      O      0.318420000000     0.509790000000     0.878100000000    -0.498942   
O31      O      0.352830000000     0.415130000000     0.788790000000    -0.476905   
O32      O      0.214650000000     0.350830000000     0.893550000000    -0.506398   
O33      O      0.297970000000     0.419030000000     0.850580000000    -0.888252   
O34      O      0.228830000000     0.343840000000     0.806150000000    -0.492416   
O35      O      0.206110000000     0.400330000000     0.825350000000    -0.481185   
O36      O      0.375710000000     0.486320000000     0.893810000000    -0.477533   
O37      O      0.242500000000     0.431580000000     0.909180000000    -0.496188   
O38      O      0.310130000000     0.341430000000     0.823510000000    -0.485998   
O39      O      0.375960000000     0.405440000000     0.874900000000    -0.478075   
O40      O      0.448090000000     0.325780000000     0.571700000000    -0.476368   
O41      O      0.519300000000     0.239790000000     0.658780000000    -0.493557   
O42      O      0.405790000000     0.251420000000     0.538450000000    -0.479679   
O43      O      0.384910000000     0.263690000000     0.626450000000    -0.466034   
O44      O      0.530600000000     0.325620000000     0.554920000000    -0.49171    
O45      O      0.444080000000     0.160670000000     0.628220000000    -0.498628   
O46      O      0.462720000000     0.250500000000     0.600450000000    -0.881727   
O47      O      0.476210000000     0.194430000000     0.544300000000    -0.483657   
O48      O      0.394210000000     0.166350000000     0.558450000000    -0.499996   
O49      O      0.459510000000     0.307670000000     0.660210000000    -0.485024   
O50      O      0.386260000000     0.183080000000     0.645390000000    -0.488409   
O51      O      0.554810000000     0.270540000000     0.574920000000    -0.483589   
O52      O      0.546300000000     0.320290000000     0.642520000000    -0.499887   
O53      O      0.366440000000     0.001930000000     0.307160000000    -0.489463   
O54      O      0.301740000000     0.862030000000     0.410090000000    -0.49138    
O55      O      0.284780000000     0.975420000000     0.294110000000    -0.486954   
O56      O      0.318420000000     0.009790000000     0.378100000000    -0.498939   
O57      O      0.352830000000     0.915130000000     0.288790000000    -0.476968   
O58      O      0.214650000000     0.850830000000     0.393550000000    -0.506418   
O59      O      0.297970000000     0.919030000000     0.350580000000    -0.888228   
O60      O      0.228830000000     0.843840000000     0.306150000000    -0.492409   
O61      O      0.206110000000     0.900330000000     0.325350000000    -0.481117   
O62      O      0.375710000000     0.986320000000     0.393810000000    -0.477774   
O63      O      0.242500000000     0.931580000000     0.409180000000    -0.496356   
O64      O      0.310130000000     0.841430000000     0.323510000000    -0.486017   
O65      O      0.375960000000     0.905440000000     0.374900000000    -0.478075   
O66      O      0.448090000000     0.825780000000     0.071700000000    -0.476382   
O67      O      0.519300000000     0.739790000000     0.158780000000    -0.493637   
O68      O      0.405790000000     0.751420000000     0.038450000000    -0.479675   
O69      O      0.384910000000     0.763690000000     0.126450000000    -0.466021   
O70      O      0.530600000000     0.825620000000     0.054920000000    -0.491719   
O71      O      0.444080000000     0.660670000000     0.128220000000    -0.498633   
O72      O      0.462720000000     0.750500000000     0.100450000000    -0.881711   
O73      O      0.476210000000     0.694430000000     0.044300000000    -0.483661   
O74      O      0.394210000000     0.666350000000     0.058450000000    -0.500003   
O75      O      0.459510000000     0.807660000000     0.160210000000    -0.485015   
O76      O      0.386260000000     0.683080000000     0.145390000000    -0.488406   
O77      O      0.554810000000     0.770540000000     0.074920000000    -0.483599   
O78      O      0.546300000000     0.820290000000     0.142520000000    -0.49981    
O79      O      0.366440000000     0.001930000000     0.807160000000    -0.489479   
O80      O      0.301740000000     0.862030000000     0.910090000000    -0.491379   
O81      O      0.284780000000     0.975420000000     0.794110000000    -0.48708    
O82      O      0.318420000000     0.009790000000     0.878100000000    -0.498869   
O83      O      0.352830000000     0.915130000000     0.788790000000    -0.476969   
O84      O      0.214650000000     0.850830000000     0.893550000000    -0.506398   
O85      O      0.297970000000     0.919030000000     0.850580000000    -0.888229   
O86      O      0.228830000000     0.843840000000     0.806150000000    -0.492417   
O87      O      0.206110000000     0.900330000000     0.825350000000    -0.481169   
O88      O      0.375710000000     0.986320000000     0.893810000000    -0.477746   
O89      O      0.242500000000     0.931580000000     0.909180000000    -0.49623    
O90      O      0.310130000000     0.841430000000     0.823510000000    -0.486018   
O91      O      0.375960000000     0.905440000000     0.874900000000    -0.478075   
O92      O      0.448090000000     0.825780000000     0.571700000000    -0.476383   
O93      O      0.519300000000     0.739790000000     0.658780000000    -0.493636   
O94      O      0.405790000000     0.751420000000     0.538450000000    -0.47968    
O95      O      0.384910000000     0.763690000000     0.626450000000    -0.466021   
O96      O      0.530600000000     0.825620000000     0.554920000000    -0.49172    
O97      O      0.444080000000     0.660670000000     0.628220000000    -0.498634   
O98      O      0.462720000000     0.750500000000     0.600450000000    -0.881709   
O99      O      0.476210000000     0.694430000000     0.544300000000    -0.483661   
O100     O      0.394210000000     0.666350000000     0.558450000000    -0.500005   
O101     O      0.459510000000     0.807660000000     0.660210000000    -0.485016   
O102     O      0.386260000000     0.683080000000     0.645390000000    -0.488406   
O103     O      0.554810000000     0.770540000000     0.574920000000    -0.483598   
O104     O      0.546300000000     0.820290000000     0.642520000000    -0.49981    
O105     O      0.866440000000     0.501930000000     0.307160000000    -0.489556   
O106     O      0.801740000000     0.362030000000     0.410090000000    -0.491351   
O107     O      0.784780000000     0.475420000000     0.294110000000    -0.486739   
O108     O      0.818420000000     0.509790000000     0.378100000000    -0.498976   
O109     O      0.852830000000     0.415130000000     0.288790000000    -0.476902   
O110     O      0.714650000000     0.350830000000     0.393550000000    -0.506484   
O111     O      0.797970000000     0.419030000000     0.350580000000    -0.88818    
O112     O      0.728830000000     0.343840000000     0.306150000000    -0.492403   
O113     O      0.706100000000     0.400330000000     0.325350000000    -0.48105    
O114     O      0.875720000000     0.486320000000     0.393810000000    -0.477448   
O115     O      0.742500000000     0.431580000000     0.409180000000    -0.496322   
O116     O      0.810130000000     0.341430000000     0.323510000000    -0.486004   
O117     O      0.875970000000     0.405440000000     0.374900000000    -0.478004   
O118     O      0.948090000000     0.325780000000     0.071700000000    -0.476274   
O119     O      0.019300000000     0.239790000000     0.158780000000    -0.492003   
O120     O      0.905790000000     0.251420000000     0.038450000000    -0.479681   
O121     O      0.884910000000     0.263690000000     0.126450000000    -0.465967   
O122     O      0.030600000000     0.325620000000     0.054920000000    -0.490203   
O123     O      0.944080000000     0.160670000000     0.128220000000    -0.498497   
O124     O      0.962720000000     0.250500000000     0.100450000000    -0.881249   
O125     O      0.976210000000     0.194430000000     0.044300000000    -0.483741   
O126     O      0.894210000000     0.166350000000     0.058450000000    -0.50003    
O127     O      0.959510000000     0.307670000000     0.160210000000    -0.485261   
O128     O      0.886260000000     0.183080000000     0.145390000000    -0.488396   
O129     O      0.054810000000     0.270540000000     0.074920000000    -0.482408   
O130     O      0.046300000000     0.320290000000     0.142520000000    -0.498638   
O131     O      0.866440000000     0.501930000000     0.807160000000    -0.489572   
O132     O      0.801740000000     0.362030000000     0.910090000000    -0.491349   
O133     O      0.784780000000     0.475420000000     0.794110000000    -0.486866   
O134     O      0.818420000000     0.509790000000     0.878100000000    -0.498906   
O135     O      0.852830000000     0.415130000000     0.788790000000    -0.476904   
O136     O      0.714650000000     0.350830000000     0.893550000000    -0.506464   
O137     O      0.797970000000     0.419030000000     0.850580000000    -0.888181   
O138     O      0.728830000000     0.343840000000     0.806150000000    -0.492411   
O139     O      0.706100000000     0.400330000000     0.825350000000    -0.481102   
O140     O      0.875720000000     0.486320000000     0.893810000000    -0.47742    
O141     O      0.742500000000     0.431580000000     0.909180000000    -0.496195   
O142     O      0.810130000000     0.341430000000     0.823510000000    -0.486005   
O143     O      0.875970000000     0.405440000000     0.874900000000    -0.478003   
O144     O      0.948090000000     0.325780000000     0.571700000000    -0.476275   
O145     O      0.019300000000     0.239790000000     0.658780000000    -0.492001   
O146     O      0.905790000000     0.251420000000     0.538450000000    -0.479686   
O147     O      0.884910000000     0.263690000000     0.626450000000    -0.465967   
O148     O      0.030600000000     0.325620000000     0.554920000000    -0.490204   
O149     O      0.944080000000     0.160670000000     0.628220000000    -0.498497   
O150     O      0.962720000000     0.250500000000     0.600450000000    -0.881247   
O151     O      0.976210000000     0.194430000000     0.544300000000    -0.483741   
O152     O      0.894210000000     0.166350000000     0.558450000000    -0.500032   
O153     O      0.959510000000     0.307670000000     0.660210000000    -0.485261   
O154     O      0.886260000000     0.183080000000     0.645390000000    -0.488396   
O155     O      0.054810000000     0.270540000000     0.574920000000    -0.482406   
O156     O      0.046300000000     0.320290000000     0.642520000000    -0.498638   
O157     O      0.866440000000     0.001930000000     0.307160000000    -0.489521   
O158     O      0.801740000000     0.862030000000     0.410090000000    -0.491396   
O159     O      0.784780000000     0.975420000000     0.294110000000    -0.486952   
O160     O      0.818410000000     0.009790000000     0.378100000000    -0.498878   
O161     O      0.852830000000     0.915130000000     0.288790000000    -0.47698    
O162     O      0.714650000000     0.850830000000     0.393550000000    -0.506487   
O163     O      0.797970000000     0.919030000000     0.350580000000    -0.888182   
O164     O      0.728830000000     0.843840000000     0.306150000000    -0.492435   
O165     O      0.706110000000     0.900330000000     0.325350000000    -0.481174   
O166     O      0.875710000000     0.986320000000     0.393810000000    -0.477745   
O167     O      0.742500000000     0.931580000000     0.409180000000    -0.49637    
O168     O      0.810130000000     0.841430000000     0.323510000000    -0.486027   
O169     O      0.875960000000     0.905440000000     0.374900000000    -0.47817    
O170     O      0.948090000000     0.825780000000     0.071700000000    -0.476285   
O171     O      0.019300000000     0.739790000000     0.158780000000    -0.492078   
O172     O      0.905790000000     0.751420000000     0.038450000000    -0.479677   
O173     O      0.884910000000     0.763690000000     0.126450000000    -0.465964   
O174     O      0.030600000000     0.825620000000     0.054920000000    -0.490209   
O175     O      0.944080000000     0.660670000000     0.128220000000    -0.498507   
O176     O      0.962720000000     0.750500000000     0.100450000000    -0.881225   
O177     O      0.976210000000     0.694430000000     0.044300000000    -0.483821   
O178     O      0.894210000000     0.666350000000     0.058450000000    -0.499953   
O179     O      0.959510000000     0.807660000000     0.160210000000    -0.485136   
O180     O      0.886260000000     0.683080000000     0.145390000000    -0.488391   
O181     O      0.054810000000     0.770540000000     0.074920000000    -0.482413   
O182     O      0.046300000000     0.820290000000     0.142520000000    -0.498563   
O183     O      0.866440000000     0.001930000000     0.807160000000    -0.489537   
O184     O      0.801740000000     0.862030000000     0.910090000000    -0.491395   
O185     O      0.784780000000     0.975420000000     0.794110000000    -0.487078   
O186     O      0.818410000000     0.009790000000     0.878100000000    -0.498808   
O187     O      0.852830000000     0.915130000000     0.788790000000    -0.476981   
O188     O      0.714650000000     0.850830000000     0.893550000000    -0.506467   
O189     O      0.797970000000     0.919030000000     0.850580000000    -0.888183   
O190     O      0.728830000000     0.843840000000     0.806150000000    -0.492443   
O191     O      0.706110000000     0.900330000000     0.825350000000    -0.481226   
O192     O      0.875710000000     0.986320000000     0.893810000000    -0.477717   
O193     O      0.742500000000     0.931580000000     0.909180000000    -0.496244   
O194     O      0.810130000000     0.841430000000     0.823510000000    -0.486028   
O195     O      0.875960000000     0.905440000000     0.874900000000    -0.478169   
O196     O      0.948090000000     0.825780000000     0.571700000000    -0.476285   
O197     O      0.019300000000     0.739790000000     0.658780000000    -0.492077   
O198     O      0.905790000000     0.751420000000     0.538450000000    -0.479682   
O199     O      0.884910000000     0.763690000000     0.626450000000    -0.465964   
O200     O      0.030600000000     0.825620000000     0.554920000000    -0.49021    
O201     O      0.944080000000     0.660670000000     0.628220000000    -0.498508   
O202     O      0.962720000000     0.750500000000     0.600450000000    -0.881224   
O203     O      0.976210000000     0.694430000000     0.544300000000    -0.483821   
O204     O      0.894210000000     0.666350000000     0.558450000000    -0.499955   
O205     O      0.959510000000     0.807660000000     0.660210000000    -0.485136   
O206     O      0.886260000000     0.683080000000     0.645390000000    -0.488392   
O207     O      0.054810000000     0.770540000000     0.574920000000    -0.482411   
O208     O      0.046300000000     0.820290000000     0.642520000000    -0.498563   


