data_structure

_audit_creation_method RASPA-1.0
_audit_creation_date 2023-6-4
_audit_author_name 'Poobodin Mano'

_cell_length_a    28.6834
_cell_length_b    28.7342
_cell_length_c    31.0316
_cell_angle_alpha 90
_cell_angle_beta  90
_cell_angle_gamma 120
_cell_volume      22149.5

_symmetry_cell_setting          triclinic
_symmetry_space_group_name_Hall 'P 1'
_symmetry_space_group_name_H-M  'P 1'
_symmetry_Int_Tables_number     1

_symmetry_equiv_pos_as_xyz 'x,y,z'

loop_
_atom_site_label
_atom_site_type_symbol
_atom_site_fract_x
_atom_site_fract_y
_atom_site_fract_z
_atom_site_charge
C1       C      0.379900000000     0.397070000000     0.275750000000     0.565604   
C2       C      0.372290000000     0.389870000000     0.391620000000     0.564474   
C3       C      0.234610000000     0.396500000000     0.391380000000     0.561785   
C4       C      0.371150000000     0.533440000000     0.275560000000     0.566466   
C5       C      0.378560000000     0.533420000000     0.391460000000     0.561528   
C6       C      0.234610000000     0.388660000000     0.275680000000     0.533839   
C7       C      0.452280000000     0.323560000000     0.141660000000     0.528899   
C8       C      0.444430000000     0.316200000000     0.025760000000     0.532093   
C9       C      0.451620000000     0.179020000000     0.025680000000     0.533309   
C10      C      0.588950000000     0.316110000000     0.141380000000     0.564118   
C11      C      0.588520000000     0.323140000000     0.025340000000     0.534449   
C12      C      0.444370000000     0.179220000000     0.141540000000     0.534334   
C13      C      0.644960000000     0.310490000000     0.976420000000     0.0299383  
C14      C      0.640770000000     0.390430000000     0.473990000000    -0.0643906  
C15      C      0.180340000000     0.328370000000     0.941410000000     0.0566527  
C16      C      0.178970000000     0.409930000000     0.441030000000     0.385869   
C17      C      0.181870000000     0.321550000000     0.224220000000     0.0284148  
C18      C      0.178530000000     0.401910000000     0.226930000000    -0.0646782  
C19      C      0.643580000000     0.302570000000     0.191310000000     0.056084   
C20      C      0.143100000000     0.384560000000     0.191940000000     0.386484   
C21      C      0.457240000000     0.123180000000     0.190620000000     0.0336336  
C22      C      0.376740000000     0.126580000000     0.192630000000    -0.0659163  
C23      C      0.439390000000     0.587880000000     0.225640000000     0.0564082  
C24      C      0.357270000000     0.588420000000     0.225590000000     0.382603   
C25      C      0.465900000000     0.126050000000     0.474410000000     0.0324276  
C26      C      0.382220000000     0.123090000000     0.976870000000    -0.0631313  
C27      C      0.446620000000     0.587830000000     0.441510000000     0.0568497  
C28      C      0.364160000000     0.587670000000     0.941890000000     0.383001   
C29      C      0.377470000000     0.302100000000     0.974160000000     0.0291616  
C30      C      0.457970000000     0.385770000000     0.477230000000    -0.0658594  
C31      C      0.358620000000     0.321530000000     0.941290000000     0.0571765  
C32      C      0.440730000000     0.404020000000     0.442280000000     0.384104   
C33      C      0.383360000000     0.310990000000     0.190750000000     0.0299188  
C34      C      0.467480000000     0.391080000000     0.192860000000    -0.0670846  
C35      C      0.365960000000     0.328900000000     0.225780000000     0.058482   
C36      C      0.448840000000     0.410640000000     0.225830000000     0.385609   
C37      C      0.379900000000     0.397070000000     0.775750000000     0.565595   
C38      C      0.372290000000     0.389870000000     0.891620000000     0.564467   
C39      C      0.234610000000     0.396500000000     0.891380000000     0.561792   
C40      C      0.371150000000     0.533440000000     0.775560000000     0.566465   
C41      C      0.378560000000     0.533420000000     0.891460000000     0.561485   
C42      C      0.234610000000     0.388660000000     0.775680000000     0.533721   
C43      C      0.452280000000     0.323560000000     0.641660000000     0.529024   
C44      C      0.444430000000     0.316200000000     0.525760000000     0.532132   
C45      C      0.451620000000     0.179020000000     0.525680000000     0.533227   
C46      C      0.588950000000     0.316110000000     0.641390000000     0.564044   
C47      C      0.588520000000     0.323140000000     0.525340000000     0.534487   
C48      C      0.444370000000     0.179220000000     0.641540000000     0.534336   
C49      C      0.644960000000     0.310490000000     0.476420000000     0.0299344  
C50      C      0.640770000000     0.390430000000     0.973990000000    -0.0643866  
C51      C      0.180340000000     0.328370000000     0.441410000000     0.0566491  
C52      C      0.178970000000     0.409930000000     0.941030000000     0.385873   
C53      C      0.181870000000     0.321550000000     0.724220000000     0.0284093  
C54      C      0.178530000000     0.401910000000     0.726930000000    -0.0646885  
C55      C      0.643580000000     0.302570000000     0.691310000000     0.0560976  
C56      C      0.143100000000     0.384560000000     0.691940000000     0.386495   
C57      C      0.457240000000     0.123180000000     0.690620000000     0.0336348  
C58      C      0.376740000000     0.126580000000     0.692630000000    -0.0659144  
C59      C      0.439390000000     0.587880000000     0.725640000000     0.0564084  
C60      C      0.357270000000     0.588420000000     0.725590000000     0.382603   
C61      C      0.465900000000     0.126050000000     0.974410000000     0.0324353  
C62      C      0.382220000000     0.123090000000     0.476870000000    -0.0631454  
C63      C      0.446620000000     0.587830000000     0.941510000000     0.0568509  
C64      C      0.364160000000     0.587670000000     0.441890000000     0.383002   
C65      C      0.377470000000     0.302100000000     0.474160000000     0.0291531  
C66      C      0.457970000000     0.385770000000     0.977230000000    -0.0659089  
C67      C      0.358620000000     0.321530000000     0.441290000000     0.0571845  
C68      C      0.440730000000     0.404020000000     0.942290000000     0.384062   
C69      C      0.383360000000     0.310990000000     0.690740000000     0.0299461  
C70      C      0.467480000000     0.391080000000     0.692860000000    -0.0670789  
C71      C      0.365960000000     0.328900000000     0.725780000000     0.0584768  
C72      C      0.448840000000     0.410640000000     0.725830000000     0.385607   
C73      C      0.379900000000     0.897070000000     0.275750000000     0.565783   
C74      C      0.372290000000     0.889870000000     0.391620000000     0.564455   
C75      C      0.234610000000     0.896500000000     0.391380000000     0.561592   
C76      C      0.371150000000     0.033440000000     0.275560000000     0.566429   
C77      C      0.378560000000     0.033420000000     0.391460000000     0.561484   
C78      C      0.234620000000     0.888660000000     0.275680000000     0.53371    
C79      C      0.452280000000     0.823560000000     0.141660000000     0.529065   
C80      C      0.444430000000     0.816200000000     0.025760000000     0.532094   
C81      C      0.451620000000     0.679020000000     0.025680000000     0.533337   
C82      C      0.588950000000     0.816110000000     0.141380000000     0.564118   
C83      C      0.588520000000     0.823140000000     0.025340000000     0.534443   
C84      C      0.444360000000     0.679220000000     0.141540000000     0.534195   
C85      C      0.644960000000     0.810490000000     0.976420000000     0.0299184  
C86      C      0.640770000000     0.890420000000     0.473990000000    -0.0642623  
C87      C      0.180340000000     0.828370000000     0.941410000000     0.0566947  
C88      C      0.178970000000     0.909930000000     0.441030000000     0.385738   
C89      C      0.181870000000     0.821550000000     0.224220000000     0.0283917  
C90      C      0.178530000000     0.901910000000     0.226930000000    -0.0647309  
C91      C      0.643580000000     0.802570000000     0.191310000000     0.0560442  
C92      C      0.143090000000     0.884560000000     0.191940000000     0.386644   
C93      C      0.457240000000     0.623180000000     0.190620000000     0.033631   
C94      C      0.376740000000     0.626580000000     0.192630000000    -0.0659204  
C95      C      0.439390000000     0.087880000000     0.225640000000     0.0564176  
C96      C      0.357270000000     0.088420000000     0.225590000000     0.382639   
C97      C      0.465900000000     0.626050000000     0.474410000000     0.032416   
C98      C      0.382220000000     0.623090000000     0.976870000000    -0.0632088  
C99      C      0.446620000000     0.087830000000     0.441510000000     0.0568536  
C100     C      0.364160000000     0.087670000000     0.941890000000     0.382966   
C101     C      0.377470000000     0.802100000000     0.974160000000     0.0291522  
C102     C      0.457970000000     0.885770000000     0.477230000000    -0.0659127  
C103     C      0.358620000000     0.821530000000     0.941290000000     0.057177   
C104     C      0.440730000000     0.904020000000     0.442280000000     0.384216   
C105     C      0.383360000000     0.810990000000     0.190750000000     0.0299103  
C106     C      0.467480000000     0.891080000000     0.192860000000    -0.0670372  
C107     C      0.365960000000     0.828900000000     0.225780000000     0.058484   
C108     C      0.448840000000     0.910640000000     0.225830000000     0.385588   
C109     C      0.379900000000     0.897070000000     0.775750000000     0.565775   
C110     C      0.372290000000     0.889870000000     0.891620000000     0.564448   
C111     C      0.234610000000     0.896500000000     0.891380000000     0.561599   
C112     C      0.371150000000     0.033440000000     0.775560000000     0.566428   
C113     C      0.378560000000     0.033420000000     0.891460000000     0.561441   
C114     C      0.234620000000     0.888660000000     0.775680000000     0.533592   
C115     C      0.452280000000     0.823560000000     0.641660000000     0.529191   
C116     C      0.444430000000     0.816200000000     0.525760000000     0.532134   
C117     C      0.451620000000     0.679020000000     0.525680000000     0.533255   
C118     C      0.588950000000     0.816110000000     0.641390000000     0.564044   
C119     C      0.588520000000     0.823140000000     0.525340000000     0.534481   
C120     C      0.444360000000     0.679220000000     0.641540000000     0.534197   
C121     C      0.644960000000     0.810490000000     0.476420000000     0.0299144  
C122     C      0.640770000000     0.890420000000     0.973990000000    -0.0642584  
C123     C      0.180340000000     0.828370000000     0.441410000000     0.0566911  
C124     C      0.178970000000     0.909930000000     0.941030000000     0.385743   
C125     C      0.181870000000     0.821550000000     0.724220000000     0.0283862  
C126     C      0.178530000000     0.901910000000     0.726930000000    -0.0647413  
C127     C      0.643580000000     0.802570000000     0.691310000000     0.0560578  
C128     C      0.143090000000     0.884560000000     0.691940000000     0.386656   
C129     C      0.457240000000     0.623180000000     0.690620000000     0.0336321  
C130     C      0.376740000000     0.626580000000     0.692630000000    -0.0659184  
C131     C      0.439390000000     0.087880000000     0.725640000000     0.0564178  
C132     C      0.357270000000     0.088420000000     0.725590000000     0.38264    
C133     C      0.465900000000     0.626050000000     0.974410000000     0.0324236  
C134     C      0.382220000000     0.623090000000     0.476870000000    -0.0632229  
C135     C      0.446620000000     0.087830000000     0.941510000000     0.0568548  
C136     C      0.364160000000     0.087670000000     0.441890000000     0.382967   
C137     C      0.377470000000     0.802100000000     0.474160000000     0.0291437  
C138     C      0.457970000000     0.885770000000     0.977230000000    -0.0659623  
C139     C      0.358620000000     0.821530000000     0.441290000000     0.0571849  
C140     C      0.440730000000     0.904020000000     0.942290000000     0.384174   
C141     C      0.383360000000     0.810990000000     0.690740000000     0.0299376  
C142     C      0.467480000000     0.891080000000     0.692860000000    -0.0670315  
C143     C      0.365960000000     0.828900000000     0.725780000000     0.0584788  
C144     C      0.448840000000     0.910640000000     0.725830000000     0.385586   
C145     C      0.879910000000     0.397070000000     0.275750000000     0.56559    
C146     C      0.872290000000     0.389870000000     0.391620000000     0.564506   
C147     C      0.734610000000     0.396500000000     0.391380000000     0.561817   
C148     C      0.871150000000     0.533440000000     0.275560000000     0.566504   
C149     C      0.878560000000     0.533420000000     0.391460000000     0.561351   
C150     C      0.734620000000     0.388660000000     0.275680000000     0.533924   
C151     C      0.952280000000     0.323560000000     0.141660000000     0.530865   
C152     C      0.944430000000     0.316200000000     0.025760000000     0.531937   
C153     C      0.951620000000     0.179020000000     0.025680000000     0.535268   
C154     C      0.088950000000     0.316110000000     0.141380000000     0.563844   
C155     C      0.088520000000     0.323140000000     0.025340000000     0.534178   
C156     C      0.944360000000     0.179220000000     0.141540000000     0.534183   
C157     C      0.144950000000     0.310490000000     0.976420000000     0.0298823  
C158     C      0.140770000000     0.390430000000     0.473990000000    -0.0644887  
C159     C      0.680340000000     0.328370000000     0.941410000000     0.0567581  
C160     C      0.678970000000     0.409930000000     0.441030000000     0.385993   
C161     C      0.681870000000     0.321550000000     0.224220000000     0.0284809  
C162     C      0.678530000000     0.401910000000     0.226930000000    -0.0646036  
C163     C      0.143580000000     0.302570000000     0.191310000000     0.0559515  
C164     C      0.643100000000     0.384560000000     0.191940000000     0.386604   
C165     C      0.957240000000     0.123180000000     0.190620000000     0.0337579  
C166     C      0.876740000000     0.126580000000     0.192630000000    -0.0658699  
C167     C      0.939390000000     0.587880000000     0.225640000000     0.0564837  
C168     C      0.857270000000     0.588420000000     0.225590000000     0.382752   
C169     C      0.965900000000     0.126050000000     0.474410000000     0.0347313  
C170     C      0.882210000000     0.123090000000     0.976870000000    -0.06296    
C171     C      0.946620000000     0.587830000000     0.441510000000     0.056146   
C172     C      0.864160000000     0.587670000000     0.941890000000     0.382941   
C173     C      0.877470000000     0.302100000000     0.974160000000     0.0292224  
C174     C      0.957970000000     0.385770000000     0.477230000000    -0.0657561  
C175     C      0.858620000000     0.321530000000     0.941290000000     0.0572276  
C176     C      0.940730000000     0.404020000000     0.442280000000     0.384241   
C177     C      0.883360000000     0.310990000000     0.190750000000     0.030124   
C178     C      0.967480000000     0.391080000000     0.192860000000    -0.0647435  
C179     C      0.865960000000     0.328900000000     0.225780000000     0.0584311  
C180     C      0.948840000000     0.410640000000     0.225830000000     0.385062   
C181     C      0.879910000000     0.397070000000     0.775750000000     0.565582   
C182     C      0.872290000000     0.389870000000     0.891620000000     0.564499   
C183     C      0.734610000000     0.396500000000     0.891380000000     0.561824   
C184     C      0.871150000000     0.533440000000     0.775560000000     0.566503   
C185     C      0.878560000000     0.533420000000     0.891460000000     0.561308   
C186     C      0.734620000000     0.388660000000     0.775680000000     0.533807   
C187     C      0.952280000000     0.323560000000     0.641660000000     0.53099    
C188     C      0.944430000000     0.316200000000     0.525760000000     0.531976   
C189     C      0.951620000000     0.179020000000     0.525680000000     0.535186   
C190     C      0.088950000000     0.316110000000     0.641390000000     0.56377    
C191     C      0.088520000000     0.323140000000     0.525340000000     0.534217   
C192     C      0.944360000000     0.179220000000     0.641540000000     0.534185   
C193     C      0.144950000000     0.310490000000     0.476420000000     0.0298783  
C194     C      0.140770000000     0.390430000000     0.973990000000    -0.0644847  
C195     C      0.680340000000     0.328370000000     0.441410000000     0.0567545  
C196     C      0.678970000000     0.409930000000     0.941030000000     0.385998   
C197     C      0.681870000000     0.321550000000     0.724220000000     0.0284753  
C198     C      0.678530000000     0.401910000000     0.726930000000    -0.064614   
C199     C      0.143580000000     0.302570000000     0.691310000000     0.055965   
C200     C      0.643100000000     0.384560000000     0.691940000000     0.386615   
C201     C      0.957240000000     0.123180000000     0.690620000000     0.0337591  
C202     C      0.876740000000     0.126580000000     0.692630000000    -0.0658679  
C203     C      0.939390000000     0.587880000000     0.725640000000     0.0564839  
C204     C      0.857270000000     0.588420000000     0.725590000000     0.382753   
C205     C      0.965900000000     0.126050000000     0.974410000000     0.0347387  
C206     C      0.882210000000     0.123090000000     0.476870000000    -0.062974   
C207     C      0.946620000000     0.587830000000     0.941510000000     0.0561473  
C208     C      0.864160000000     0.587670000000     0.441890000000     0.382942   
C209     C      0.877470000000     0.302100000000     0.474160000000     0.029214   
C210     C      0.957970000000     0.385770000000     0.977230000000    -0.0658057  
C211     C      0.858620000000     0.321530000000     0.441290000000     0.0572356  
C212     C      0.940730000000     0.404020000000     0.942290000000     0.384199   
C213     C      0.883360000000     0.310990000000     0.690740000000     0.0301512  
C214     C      0.967480000000     0.391080000000     0.692860000000    -0.0647379  
C215     C      0.865960000000     0.328900000000     0.725780000000     0.0584259  
C216     C      0.948840000000     0.410640000000     0.725830000000     0.38506    
C217     C      0.879900000000     0.897070000000     0.275750000000     0.565753   
C218     C      0.872290000000     0.889870000000     0.391620000000     0.564477   
C219     C      0.734610000000     0.896500000000     0.391380000000     0.561631   
C220     C      0.871150000000     0.033440000000     0.275560000000     0.56645    
C221     C      0.878560000000     0.033420000000     0.391460000000     0.5615     
C222     C      0.734620000000     0.888660000000     0.275680000000     0.533748   
C223     C      0.952280000000     0.823560000000     0.141660000000     0.530831   
C224     C      0.944430000000     0.816200000000     0.025760000000     0.531936   
C225     C      0.951620000000     0.679020000000     0.025680000000     0.535303   
C226     C      0.088950000000     0.816110000000     0.141380000000     0.563849   
C227     C      0.088520000000     0.823140000000     0.025340000000     0.534174   
C228     C      0.944370000000     0.679220000000     0.141540000000     0.533844   
C229     C      0.144950000000     0.810490000000     0.976420000000     0.0298613  
C230     C      0.140770000000     0.890420000000     0.473990000000    -0.0643794  
C231     C      0.680340000000     0.828370000000     0.941410000000     0.0567994  
C232     C      0.678970000000     0.909930000000     0.441030000000     0.38583    
C233     C      0.681870000000     0.821550000000     0.224220000000     0.0284694  
C234     C      0.678530000000     0.901910000000     0.226930000000    -0.0646553  
C235     C      0.143580000000     0.802570000000     0.191310000000     0.0559167  
C236     C      0.643090000000     0.884560000000     0.191940000000     0.386763   
C237     C      0.957240000000     0.623180000000     0.190620000000     0.0337448  
C238     C      0.876740000000     0.626580000000     0.192630000000    -0.0659445  
C239     C      0.939390000000     0.087880000000     0.225640000000     0.056532   
C240     C      0.857270000000     0.088420000000     0.225590000000     0.382695   
C241     C      0.965900000000     0.626050000000     0.474410000000     0.0347869  
C242     C      0.882220000000     0.623090000000     0.976870000000    -0.0629968  
C243     C      0.946620000000     0.087830000000     0.441510000000     0.0561862  
C244     C      0.864160000000     0.087670000000     0.941890000000     0.382933   
C245     C      0.877470000000     0.802100000000     0.974160000000     0.0292129  
C246     C      0.957970000000     0.885770000000     0.477230000000    -0.0658093  
C247     C      0.858620000000     0.821530000000     0.941290000000     0.0572286  
C248     C      0.940730000000     0.904020000000     0.442280000000     0.384353   
C249     C      0.883360000000     0.810990000000     0.190750000000     0.0301201  
C250     C      0.967480000000     0.891080000000     0.192860000000    -0.0647725  
C251     C      0.865960000000     0.828900000000     0.225780000000     0.0584057  
C252     C      0.948840000000     0.910640000000     0.225830000000     0.38511    
C253     C      0.879900000000     0.897070000000     0.775750000000     0.565744   
C254     C      0.872290000000     0.889870000000     0.891620000000     0.56447    
C255     C      0.734610000000     0.896500000000     0.891380000000     0.561638   
C256     C      0.871150000000     0.033440000000     0.775560000000     0.566449   
C257     C      0.878560000000     0.033420000000     0.891460000000     0.561457   
C258     C      0.734620000000     0.888660000000     0.775680000000     0.53363    
C259     C      0.952280000000     0.823560000000     0.641660000000     0.530957   
C260     C      0.944430000000     0.816200000000     0.525760000000     0.531976   
C261     C      0.951620000000     0.679020000000     0.525680000000     0.53522    
C262     C      0.088950000000     0.816110000000     0.641390000000     0.563775   
C263     C      0.088520000000     0.823140000000     0.525340000000     0.534212   
C264     C      0.944370000000     0.679220000000     0.641540000000     0.533846   
C265     C      0.144950000000     0.810490000000     0.476420000000     0.0298573  
C266     C      0.140770000000     0.890420000000     0.973990000000    -0.0643755  
C267     C      0.680340000000     0.828370000000     0.441410000000     0.0567957  
C268     C      0.678970000000     0.909930000000     0.941030000000     0.385835   
C269     C      0.681870000000     0.821550000000     0.724220000000     0.0284638  
C270     C      0.678530000000     0.901910000000     0.726930000000    -0.0646657  
C271     C      0.143580000000     0.802570000000     0.691310000000     0.0559302  
C272     C      0.643090000000     0.884560000000     0.691940000000     0.386774   
C273     C      0.957240000000     0.623180000000     0.690620000000     0.0337459  
C274     C      0.876740000000     0.626580000000     0.692630000000    -0.0659425  
C275     C      0.939390000000     0.087880000000     0.725640000000     0.0565322  
C276     C      0.857270000000     0.088420000000     0.725590000000     0.382695   
C277     C      0.965900000000     0.626050000000     0.974410000000     0.0347944  
C278     C      0.882220000000     0.623090000000     0.476870000000    -0.0630109  
C279     C      0.946620000000     0.087830000000     0.941510000000     0.0561874  
C280     C      0.864160000000     0.087670000000     0.441890000000     0.382934   
C281     C      0.877470000000     0.802100000000     0.474160000000     0.0292044  
C282     C      0.957970000000     0.885770000000     0.977230000000    -0.0658589  
C283     C      0.858620000000     0.821530000000     0.441290000000     0.0572365  
C284     C      0.940730000000     0.904020000000     0.942290000000     0.384311   
C285     C      0.883360000000     0.810990000000     0.690740000000     0.0301474  
C286     C      0.967480000000     0.891080000000     0.692860000000    -0.0647668  
C287     C      0.865960000000     0.828900000000     0.725780000000     0.0584005  
C288     C      0.948840000000     0.910640000000     0.725830000000     0.385108   
F1       F      0.194110000000     0.459330000000     0.424560000000    -0.412126   
F2       F      0.624820000000     0.417180000000     0.177400000000    -0.431632   
F3       F      0.307550000000     0.572830000000     0.241810000000    -0.432541   
F4       F      0.313310000000     0.569630000000     0.927190000000    -0.412234   
F5       F      0.473470000000     0.454970000000     0.427930000000    -0.434264   
F6       F      0.483100000000     0.460190000000     0.242110000000    -0.433988   
F7       F      0.194110000000     0.459330000000     0.924560000000    -0.412121   
F8       F      0.624820000000     0.417180000000     0.677400000000    -0.431635   
F9       F      0.307550000000     0.572830000000     0.741810000000    -0.432541   
F10      F      0.313310000000     0.569630000000     0.427190000000    -0.412239   
F11      F      0.473470000000     0.454970000000     0.927930000000    -0.434227   
F12      F      0.483100000000     0.460190000000     0.742110000000    -0.433986   
F13      F      0.194110000000     0.959330000000     0.424560000000    -0.412142   
F14      F      0.624820000000     0.917180000000     0.177400000000    -0.431729   
F15      F      0.307550000000     0.072820000000     0.241810000000    -0.432525   
F16      F      0.313310000000     0.069640000000     0.927190000000    -0.412185   
F17      F      0.473470000000     0.954960000000     0.427930000000    -0.434367   
F18      F      0.483100000000     0.960190000000     0.242110000000    -0.434019   
F19      F      0.194110000000     0.959330000000     0.924560000000    -0.412137   
F20      F      0.624820000000     0.917180000000     0.677400000000    -0.431733   
F21      F      0.307550000000     0.072820000000     0.741810000000    -0.432525   
F22      F      0.313310000000     0.069640000000     0.427190000000    -0.41219    
F23      F      0.473470000000     0.954960000000     0.927930000000    -0.434331   
F24      F      0.483100000000     0.960190000000     0.742110000000    -0.434017   
F25      F      0.694120000000     0.459330000000     0.424560000000    -0.411988   
F26      F      0.124820000000     0.417180000000     0.177400000000    -0.43179    
F27      F      0.807550000000     0.572830000000     0.241810000000    -0.432471   
F28      F      0.813310000000     0.569630000000     0.927190000000    -0.412139   
F29      F      0.973470000000     0.454970000000     0.427930000000    -0.433974   
F30      F      0.983100000000     0.460190000000     0.242110000000    -0.433455   
F31      F      0.694120000000     0.459330000000     0.924560000000    -0.411984   
F32      F      0.124820000000     0.417180000000     0.677400000000    -0.431793   
F33      F      0.807550000000     0.572830000000     0.741810000000    -0.43247    
F34      F      0.813310000000     0.569630000000     0.427190000000    -0.412144   
F35      F      0.973470000000     0.454970000000     0.927930000000    -0.433938   
F36      F      0.983100000000     0.460190000000     0.742110000000    -0.433453   
F37      F      0.694110000000     0.959330000000     0.424560000000    -0.411992   
F38      F      0.124820000000     0.917180000000     0.177400000000    -0.431883   
F39      F      0.807550000000     0.072820000000     0.241810000000    -0.432443   
F40      F      0.813310000000     0.069640000000     0.927190000000    -0.4121     
F41      F      0.973470000000     0.954960000000     0.427930000000    -0.434078   
F42      F      0.983100000000     0.960190000000     0.242110000000    -0.433491   
F43      F      0.694110000000     0.959330000000     0.924560000000    -0.411987   
F44      F      0.124820000000     0.917180000000     0.677400000000    -0.431887   
F45      F      0.807550000000     0.072820000000     0.741810000000    -0.432443   
F46      F      0.813310000000     0.069640000000     0.427190000000    -0.412105   
F47      F      0.973470000000     0.954960000000     0.927930000000    -0.434042   
F48      F      0.983100000000     0.960190000000     0.742110000000    -0.433489   
Fe1      Fe     0.295120000000     0.372350000000     0.333580000000     1.37561    
Fe2      Fe     0.294580000000     0.473080000000     0.333430000000     1.41379    
Fe3      Fe     0.396030000000     0.473780000000     0.333520000000     1.40076    
Fe4      Fe     0.427570000000     0.239280000000     0.083580000000     1.36946    
Fe5      Fe     0.528760000000     0.239080000000     0.083550000000     1.36895    
Fe6      Fe     0.528820000000     0.340100000000     0.083480000000     1.38536    
Fe7      Fe     0.295120000000     0.372350000000     0.833580000000     1.3756     
Fe8      Fe     0.294580000000     0.473080000000     0.833430000000     1.41383    
Fe9      Fe     0.396030000000     0.473780000000     0.833520000000     1.40061    
Fe10     Fe     0.427570000000     0.239280000000     0.583580000000     1.36946    
Fe11     Fe     0.528760000000     0.239080000000     0.583550000000     1.36896    
Fe12     Fe     0.528820000000     0.340100000000     0.583480000000     1.38536    
Fe13     Fe     0.295120000000     0.872350000000     0.333580000000     1.37562    
Fe14     Fe     0.294580000000     0.973080000000     0.333430000000     1.41354    
Fe15     Fe     0.396030000000     0.973780000000     0.333520000000     1.40052    
Fe16     Fe     0.427570000000     0.739270000000     0.083580000000     1.36968    
Fe17     Fe     0.528760000000     0.739090000000     0.083550000000     1.36879    
Fe18     Fe     0.528820000000     0.840100000000     0.083480000000     1.38537    
Fe19     Fe     0.295120000000     0.872350000000     0.833580000000     1.37562    
Fe20     Fe     0.294580000000     0.973080000000     0.833430000000     1.41358    
Fe21     Fe     0.396030000000     0.973780000000     0.833520000000     1.40037    
Fe22     Fe     0.427570000000     0.739270000000     0.583580000000     1.36968    
Fe23     Fe     0.528760000000     0.739090000000     0.583550000000     1.36881    
Fe24     Fe     0.528820000000     0.840100000000     0.583480000000     1.38536    
Fe25     Fe     0.795120000000     0.372350000000     0.333580000000     1.37569    
Fe26     Fe     0.794580000000     0.473080000000     0.333430000000     1.41364    
Fe27     Fe     0.896030000000     0.473780000000     0.333520000000     1.40106    
Fe28     Fe     0.927570000000     0.239280000000     0.083580000000     1.36953    
Fe29     Fe     0.028760000000     0.239080000000     0.083550000000     1.36654    
Fe30     Fe     0.028820000000     0.340100000000     0.083480000000     1.38297    
Fe31     Fe     0.795120000000     0.372350000000     0.833580000000     1.37568    
Fe32     Fe     0.794580000000     0.473080000000     0.833430000000     1.41368    
Fe33     Fe     0.896030000000     0.473780000000     0.833520000000     1.40091    
Fe34     Fe     0.927570000000     0.239280000000     0.583580000000     1.36954    
Fe35     Fe     0.028760000000     0.239080000000     0.583550000000     1.36655    
Fe36     Fe     0.028820000000     0.340100000000     0.583480000000     1.38296    
Fe37     Fe     0.795120000000     0.872350000000     0.333580000000     1.37568    
Fe38     Fe     0.794580000000     0.973080000000     0.333430000000     1.4136     
Fe39     Fe     0.896030000000     0.973780000000     0.333520000000     1.40065    
Fe40     Fe     0.927570000000     0.739270000000     0.083580000000     1.3697     
Fe41     Fe     0.028760000000     0.739090000000     0.083550000000     1.3664     
Fe42     Fe     0.028820000000     0.840100000000     0.083480000000     1.38299    
Fe43     Fe     0.795120000000     0.872350000000     0.833580000000     1.37568    
Fe44     Fe     0.794580000000     0.973080000000     0.833430000000     1.41364    
Fe45     Fe     0.896030000000     0.973780000000     0.833520000000     1.40051    
Fe46     Fe     0.927570000000     0.739270000000     0.583580000000     1.36971    
Fe47     Fe     0.028760000000     0.739090000000     0.583550000000     1.36642    
Fe48     Fe     0.028820000000     0.840100000000     0.583480000000     1.38298    
H1       H      0.194860000000     0.302470000000     0.929350000000     0.0399865  
H2       H      0.632670000000     0.271080000000     0.989660000000     0.045528   
H3       H      0.625700000000     0.416020000000     0.485660000000     0.10678    
H4       H      0.630600000000     0.262870000000     0.178350000000     0.0371756  
H5       H      0.196460000000     0.295520000000     0.235840000000     0.0449638  
H6       H      0.191070000000     0.441280000000     0.240410000000     0.123346   
H7       H      0.465540000000     0.573730000000     0.237870000000     0.0597611  
H8       H      0.496870000000     0.135750000000     0.177550000000     0.0495273  
H9       H      0.350910000000     0.141310000000     0.180770000000     0.099566   
H10      H      0.473360000000     0.574740000000     0.428680000000     0.0592236  
H11      H      0.506480000000     0.140450000000     0.486110000000     0.0472276  
H12      H      0.355400000000     0.135780000000     0.990240000000     0.101758   
H13      H      0.318910000000     0.294840000000     0.928210000000     0.0402085  
H14      H      0.351340000000     0.261450000000     0.985610000000     0.0485332  
H15      H      0.497360000000     0.412530000000     0.490840000000     0.103542   
H16      H      0.325580000000     0.302940000000     0.237970000000     0.0415537  
H17      H      0.356180000000     0.271490000000     0.177630000000     0.0490665  
H18      H      0.508110000000     0.416720000000     0.181040000000     0.120032   
H19      H      0.194860000000     0.302470000000     0.429350000000     0.0399845  
H20      H      0.632670000000     0.271080000000     0.489660000000     0.045516   
H21      H      0.625700000000     0.416020000000     0.985660000000     0.106792   
H22      H      0.630600000000     0.262870000000     0.678350000000     0.0371735  
H23      H      0.196460000000     0.295520000000     0.735840000000     0.0449677  
H24      H      0.191070000000     0.441280000000     0.740410000000     0.123344   
H25      H      0.465540000000     0.573730000000     0.737870000000     0.059762   
H26      H      0.496870000000     0.135750000000     0.677550000000     0.0495284  
H27      H      0.350910000000     0.141310000000     0.680770000000     0.0995696  
H28      H      0.473360000000     0.574740000000     0.928680000000     0.0592262  
H29      H      0.506480000000     0.140450000000     0.986110000000     0.0472366  
H30      H      0.355400000000     0.135780000000     0.490240000000     0.101743   
H31      H      0.318910000000     0.294840000000     0.428210000000     0.040203   
H32      H      0.351340000000     0.261450000000     0.485610000000     0.0485207  
H33      H      0.497360000000     0.412530000000     0.990840000000     0.103568   
H34      H      0.325580000000     0.302940000000     0.737970000000     0.0415559  
H35      H      0.356180000000     0.271490000000     0.677630000000     0.0490638  
H36      H      0.508110000000     0.416720000000     0.681040000000     0.12003    
H37      H      0.194860000000     0.802470000000     0.929350000000     0.0399789  
H38      H      0.632670000000     0.771080000000     0.989660000000     0.0455326  
H39      H      0.625700000000     0.916020000000     0.485660000000     0.10672    
H40      H      0.630600000000     0.762870000000     0.178350000000     0.0371853  
H41      H      0.196460000000     0.795530000000     0.235840000000     0.0449708  
H42      H      0.191080000000     0.941280000000     0.240410000000     0.12334    
H43      H      0.465540000000     0.073730000000     0.237870000000     0.0597848  
H44      H      0.496870000000     0.635750000000     0.177550000000     0.049527   
H45      H      0.350910000000     0.641310000000     0.180770000000     0.0995599  
H46      H      0.473360000000     0.074740000000     0.428680000000     0.0592438  
H47      H      0.506480000000     0.640450000000     0.486110000000     0.0472236  
H48      H      0.355410000000     0.635780000000     0.990240000000     0.101772   
H49      H      0.318910000000     0.794840000000     0.928210000000     0.0402049  
H50      H      0.351340000000     0.761450000000     0.985610000000     0.0485275  
H51      H      0.497360000000     0.912530000000     0.490840000000     0.103543   
H52      H      0.325580000000     0.802940000000     0.237970000000     0.0415481  
H53      H      0.356190000000     0.771490000000     0.177630000000     0.0490641  
H54      H      0.508120000000     0.916720000000     0.181040000000     0.119999   
H55      H      0.194860000000     0.802470000000     0.429350000000     0.0399768  
H56      H      0.632670000000     0.771080000000     0.489660000000     0.0455206  
H57      H      0.625700000000     0.916020000000     0.985660000000     0.106732   
H58      H      0.630600000000     0.762870000000     0.678350000000     0.0371833  
H59      H      0.196460000000     0.795530000000     0.735840000000     0.0449747  
H60      H      0.191080000000     0.941280000000     0.740410000000     0.123338   
H61      H      0.465540000000     0.073730000000     0.737870000000     0.0597856  
H62      H      0.496870000000     0.635750000000     0.677550000000     0.0495281  
H63      H      0.350910000000     0.641310000000     0.680770000000     0.0995635  
H64      H      0.473360000000     0.074740000000     0.928680000000     0.0592465  
H65      H      0.506480000000     0.640450000000     0.986110000000     0.0472326  
H66      H      0.355410000000     0.635780000000     0.490240000000     0.101756   
H67      H      0.318910000000     0.794840000000     0.428210000000     0.0401994  
H68      H      0.351340000000     0.761450000000     0.485610000000     0.048515   
H69      H      0.497360000000     0.912530000000     0.990840000000     0.103569   
H70      H      0.325580000000     0.802940000000     0.737970000000     0.0415503  
H71      H      0.356190000000     0.771490000000     0.677630000000     0.0490614  
H72      H      0.508120000000     0.916720000000     0.681040000000     0.119998   
H73      H      0.694860000000     0.302470000000     0.929350000000     0.040071   
H74      H      0.132670000000     0.271080000000     0.989660000000     0.0454055  
H75      H      0.125700000000     0.416020000000     0.485660000000     0.106578   
H76      H      0.130600000000     0.262870000000     0.178350000000     0.0369914  
H77      H      0.696460000000     0.295520000000     0.235840000000     0.0450757  
H78      H      0.691070000000     0.441280000000     0.240410000000     0.123445   
H79      H      0.965540000000     0.573730000000     0.237870000000     0.0599772  
H80      H      0.996870000000     0.135750000000     0.177550000000     0.0499151  
H81      H      0.850910000000     0.141310000000     0.180770000000     0.0996182  
H82      H      0.973360000000     0.574740000000     0.428680000000     0.0597584  
H83      H      0.006480000000     0.140450000000     0.486110000000     0.0455412  
H84      H      0.855400000000     0.135780000000     0.990240000000     0.101776   
H85      H      0.818910000000     0.294840000000     0.928210000000     0.0402665  
H86      H      0.851340000000     0.261450000000     0.985610000000     0.0485869  
H87      H      0.997360000000     0.412530000000     0.490840000000     0.103934   
H88      H      0.825580000000     0.302940000000     0.237970000000     0.0416314  
H89      H      0.856180000000     0.271490000000     0.177630000000     0.0490609  
H90      H      0.008120000000     0.416720000000     0.181040000000     0.118341   
H91      H      0.694860000000     0.302470000000     0.429350000000     0.040069   
H92      H      0.132670000000     0.271080000000     0.489660000000     0.0453934  
H93      H      0.125700000000     0.416020000000     0.985660000000     0.10659    
H94      H      0.130600000000     0.262870000000     0.678350000000     0.0369894  
H95      H      0.696460000000     0.295520000000     0.735840000000     0.0450796  
H96      H      0.691070000000     0.441280000000     0.740410000000     0.123443   
H97      H      0.965540000000     0.573730000000     0.737870000000     0.059978   
H98      H      0.996870000000     0.135750000000     0.677550000000     0.0499162  
H99      H      0.850910000000     0.141310000000     0.680770000000     0.0996218  
H100     H      0.973360000000     0.574740000000     0.928680000000     0.059761   
H101     H      0.006480000000     0.140450000000     0.986110000000     0.0455504  
H102     H      0.855400000000     0.135780000000     0.490240000000     0.101761   
H103     H      0.818910000000     0.294840000000     0.428210000000     0.040261   
H104     H      0.851340000000     0.261450000000     0.485610000000     0.0485744  
H105     H      0.997360000000     0.412530000000     0.990840000000     0.10396    
H106     H      0.825580000000     0.302940000000     0.737970000000     0.0416336  
H107     H      0.856180000000     0.271490000000     0.677630000000     0.0490582  
H108     H      0.008120000000     0.416720000000     0.681040000000     0.118339   
H109     H      0.694860000000     0.802470000000     0.929350000000     0.040063   
H110     H      0.132670000000     0.771080000000     0.989660000000     0.0454109  
H111     H      0.125700000000     0.916020000000     0.485660000000     0.106517   
H112     H      0.130600000000     0.762870000000     0.178350000000     0.037      
H113     H      0.696460000000     0.795530000000     0.235840000000     0.0450767  
H114     H      0.691080000000     0.941280000000     0.240410000000     0.123434   
H115     H      0.965540000000     0.073730000000     0.237870000000     0.0599911  
H116     H      0.996870000000     0.635750000000     0.177550000000     0.0499151  
H117     H      0.850920000000     0.641310000000     0.180770000000     0.0996545  
H118     H      0.973360000000     0.074740000000     0.428680000000     0.059764   
H119     H      0.006480000000     0.640450000000     0.486110000000     0.0455227  
H120     H      0.855410000000     0.635780000000     0.990240000000     0.101764   
H121     H      0.818910000000     0.794840000000     0.928210000000     0.0402637  
H122     H      0.851340000000     0.761450000000     0.985610000000     0.0485817  
H123     H      0.997360000000     0.912530000000     0.490840000000     0.103934   
H124     H      0.825580000000     0.802940000000     0.237970000000     0.0416294  
H125     H      0.856190000000     0.771490000000     0.177630000000     0.0490615  
H126     H      0.008120000000     0.916720000000     0.181040000000     0.11833    
H127     H      0.694860000000     0.802470000000     0.429350000000     0.0400609  
H128     H      0.132670000000     0.771080000000     0.489660000000     0.0453988  
H129     H      0.125700000000     0.916020000000     0.985660000000     0.106529   
H130     H      0.130600000000     0.762870000000     0.678350000000     0.0369979  
H131     H      0.696460000000     0.795530000000     0.735840000000     0.0450806  
H132     H      0.691080000000     0.941280000000     0.740410000000     0.123432   
H133     H      0.965540000000     0.073730000000     0.737870000000     0.0599919  
H134     H      0.996870000000     0.635750000000     0.677550000000     0.0499162  
H135     H      0.850920000000     0.641310000000     0.680770000000     0.0996582  
H136     H      0.973360000000     0.074740000000     0.928680000000     0.0597665  
H137     H      0.006480000000     0.640450000000     0.986110000000     0.0455318  
H138     H      0.855410000000     0.635780000000     0.490240000000     0.101749   
H139     H      0.818910000000     0.794840000000     0.428210000000     0.0402582  
H140     H      0.851340000000     0.761450000000     0.485610000000     0.0485692  
H141     H      0.997360000000     0.912530000000     0.990840000000     0.10396    
H142     H      0.825580000000     0.802940000000     0.737970000000     0.0416316  
H143     H      0.856190000000     0.771490000000     0.677630000000     0.0490587  
H144     H      0.008120000000     0.916720000000     0.681040000000     0.118328   
N1       N      0.624680000000     0.341270000000     0.992120000000    -0.174903   
N2       N      0.198090000000     0.378430000000     0.424380000000    -0.243777   
N3       N      0.198470000000     0.370750000000     0.242440000000    -0.172995   
N4       N      0.625100000000     0.334480000000     0.174650000000    -0.246679   
N5       N      0.426180000000     0.143060000000     0.174720000000    -0.175686   
N6       N      0.389090000000     0.569780000000     0.242480000000    -0.24388    
N7       N      0.433310000000     0.142840000000     0.992500000000    -0.175868   
N8       N      0.396250000000     0.569530000000     0.424720000000    -0.241448   
N9       N      0.426680000000     0.334610000000     0.992550000000    -0.174769   
N10      N      0.390640000000     0.372010000000     0.424840000000    -0.245567   
N11      N      0.434380000000     0.341810000000     0.174880000000    -0.171998   
N12      N      0.398290000000     0.379060000000     0.242670000000    -0.2461     
N13      N      0.624680000000     0.341270000000     0.492120000000    -0.174926   
N14      N      0.198090000000     0.378430000000     0.924380000000    -0.243777   
N15      N      0.198470000000     0.370750000000     0.742440000000    -0.172974   
N16      N      0.625100000000     0.334480000000     0.674650000000    -0.246729   
N17      N      0.426180000000     0.143060000000     0.674720000000    -0.175685   
N18      N      0.389090000000     0.569780000000     0.742480000000    -0.243879   
N19      N      0.433310000000     0.142840000000     0.492500000000    -0.175872   
N20      N      0.396250000000     0.569530000000     0.924720000000    -0.241435   
N21      N      0.426680000000     0.334610000000     0.492550000000    -0.174804   
N22      N      0.390640000000     0.372010000000     0.924840000000    -0.245528   
N23      N      0.434380000000     0.341810000000     0.674880000000    -0.172024   
N24      N      0.398290000000     0.379060000000     0.742670000000    -0.246096   
N25      N      0.624680000000     0.841270000000     0.992120000000    -0.174921   
N26      N      0.198090000000     0.878420000000     0.424380000000    -0.243712   
N27      N      0.198470000000     0.870750000000     0.242440000000    -0.172925   
N28      N      0.625100000000     0.834490000000     0.174650000000    -0.246722   
N29      N      0.426180000000     0.643060000000     0.174720000000    -0.17566    
N30      N      0.389090000000     0.069780000000     0.242480000000    -0.243866   
N31      N      0.433310000000     0.642840000000     0.992500000000    -0.175862   
N32      N      0.396250000000     0.069530000000     0.424720000000    -0.241428   
N33      N      0.426680000000     0.834610000000     0.992550000000    -0.174764   
N34      N      0.390640000000     0.872010000000     0.424840000000    -0.24559    
N35      N      0.434380000000     0.841810000000     0.174880000000    -0.172039   
N36      N      0.398290000000     0.879060000000     0.242670000000    -0.246132   
N37      N      0.624680000000     0.841270000000     0.492120000000    -0.174945   
N38      N      0.198090000000     0.878420000000     0.924380000000    -0.243712   
N39      N      0.198470000000     0.870750000000     0.742440000000    -0.172904   
N40      N      0.625100000000     0.834490000000     0.674650000000    -0.246772   
N41      N      0.426180000000     0.643060000000     0.674720000000    -0.175659   
N42      N      0.389090000000     0.069780000000     0.742480000000    -0.243866   
N43      N      0.433310000000     0.642840000000     0.492500000000    -0.175866   
N44      N      0.396250000000     0.069530000000     0.924720000000    -0.241415   
N45      N      0.426680000000     0.834610000000     0.492550000000    -0.174799   
N46      N      0.390640000000     0.872010000000     0.924840000000    -0.245551   
N47      N      0.434380000000     0.841810000000     0.674880000000    -0.172065   
N48      N      0.398290000000     0.879060000000     0.742670000000    -0.246129   
N49      N      0.124680000000     0.341270000000     0.992120000000    -0.174928   
N50      N      0.698090000000     0.378430000000     0.424380000000    -0.243761   
N51      N      0.698470000000     0.370750000000     0.242440000000    -0.172936   
N52      N      0.125100000000     0.334480000000     0.174650000000    -0.246679   
N53      N      0.926180000000     0.143060000000     0.174720000000    -0.175585   
N54      N      0.889080000000     0.569780000000     0.242480000000    -0.243892   
N55      N      0.933300000000     0.142840000000     0.992500000000    -0.176411   
N56      N      0.896250000000     0.569530000000     0.424720000000    -0.241238   
N57      N      0.926680000000     0.334610000000     0.992550000000    -0.174665   
N58      N      0.890640000000     0.372010000000     0.424840000000    -0.245554   
N59      N      0.934380000000     0.341810000000     0.174880000000    -0.172562   
N60      N      0.898290000000     0.379060000000     0.242670000000    -0.245994   
N61      N      0.124680000000     0.341270000000     0.492120000000    -0.174951   
N62      N      0.698090000000     0.378430000000     0.924380000000    -0.243761   
N63      N      0.698470000000     0.370750000000     0.742440000000    -0.172915   
N64      N      0.125100000000     0.334480000000     0.674650000000    -0.246729   
N65      N      0.926180000000     0.143060000000     0.674720000000    -0.175584   
N66      N      0.889080000000     0.569780000000     0.742480000000    -0.243892   
N67      N      0.933300000000     0.142840000000     0.492500000000    -0.176415   
N68      N      0.896250000000     0.569530000000     0.924720000000    -0.241225   
N69      N      0.926680000000     0.334610000000     0.492550000000    -0.1747     
N70      N      0.890640000000     0.372010000000     0.924840000000    -0.245515   
N71      N      0.934380000000     0.341810000000     0.674880000000    -0.172588   
N72      N      0.898290000000     0.379060000000     0.742670000000    -0.245991   
N73      N      0.124680000000     0.841270000000     0.992120000000    -0.174943   
N74      N      0.698090000000     0.878420000000     0.424380000000    -0.243696   
N75      N      0.698470000000     0.870750000000     0.242440000000    -0.1729     
N76      N      0.125100000000     0.834490000000     0.174650000000    -0.246723   
N77      N      0.926180000000     0.643060000000     0.174720000000    -0.175506   
N78      N      0.889090000000     0.069780000000     0.242480000000    -0.243847   
N79      N      0.933310000000     0.642840000000     0.992500000000    -0.176431   
N80      N      0.896250000000     0.069530000000     0.424720000000    -0.241266   
N81      N      0.926680000000     0.834610000000     0.992550000000    -0.17466    
N82      N      0.890640000000     0.872010000000     0.424840000000    -0.245575   
N83      N      0.934380000000     0.841810000000     0.174880000000    -0.172555   
N84      N      0.898300000000     0.879060000000     0.242670000000    -0.245982   
N85      N      0.124680000000     0.841270000000     0.492120000000    -0.174967   
N86      N      0.698090000000     0.878420000000     0.924380000000    -0.243696   
N87      N      0.698470000000     0.870750000000     0.742440000000    -0.172879   
N88      N      0.125100000000     0.834490000000     0.674650000000    -0.246773   
N89      N      0.926180000000     0.643060000000     0.674720000000    -0.175505   
N90      N      0.889090000000     0.069780000000     0.742480000000    -0.243847   
N91      N      0.933310000000     0.642840000000     0.492500000000    -0.176434   
N92      N      0.896250000000     0.069530000000     0.924720000000    -0.241253   
N93      N      0.926680000000     0.834610000000     0.492550000000    -0.174695   
N94      N      0.890640000000     0.872010000000     0.924840000000    -0.245536   
N95      N      0.934380000000     0.841810000000     0.674880000000    -0.172582   
N96      N      0.898300000000     0.879060000000     0.742670000000    -0.245978   
O1       O      0.404850000000     0.425010000000     0.365680000000    -0.459096   
O2       O      0.321670000000     0.503280000000     0.281790000000    -0.47322    
O3       O      0.322670000000     0.369470000000     0.385150000000    -0.511224   
O4       O      0.344410000000     0.364200000000     0.301380000000    -0.500454   
O5       O      0.398950000000     0.504220000000     0.385090000000    -0.491453   
O6       O      0.236990000000     0.423760000000     0.301530000000    -0.478024   
O7       O      0.328570000000     0.439710000000     0.333500000000    -0.892068   
O8       O      0.264390000000     0.445930000000     0.385040000000    -0.455952   
O9       O      0.237470000000     0.363710000000     0.365850000000    -0.499877   
O10      O      0.399330000000     0.446500000000     0.282000000000    -0.474283   
O11      O      0.264400000000     0.368920000000     0.282000000000    -0.504353   
O12      O      0.343560000000     0.530860000000     0.365340000000    -0.454284   
O13      O      0.404120000000     0.531090000000     0.301270000000    -0.49446    
O14      O      0.479620000000     0.348740000000     0.051700000000    -0.490769   
O15      O      0.559470000000     0.266580000000     0.135090000000    -0.510322   
O16      O      0.424420000000     0.266680000000     0.032000000000    -0.50112    
O17      O      0.419340000000     0.288400000000     0.115870000000    -0.492294   
O18      O      0.558860000000     0.343000000000     0.031780000000    -0.498561   
O19      O      0.479730000000     0.181730000000     0.115830000000    -0.493416   
O20      O      0.495030000000     0.272780000000     0.083540000000    -0.876282   
O21      O      0.501220000000     0.208420000000     0.032050000000    -0.503187   
O22      O      0.418930000000     0.181760000000     0.051420000000    -0.490295   
O23      O      0.501820000000     0.343310000000     0.135180000000    -0.480263   
O24      O      0.424430000000     0.208790000000     0.135110000000    -0.500062   
O25      O      0.586210000000     0.288030000000     0.051190000000    -0.494861   
O26      O      0.586610000000     0.348580000000     0.115240000000    -0.465476   
O27      O      0.404850000000     0.425010000000     0.865680000000    -0.459075   
O28      O      0.321670000000     0.503280000000     0.781790000000    -0.47323    
O29      O      0.322670000000     0.369470000000     0.885150000000    -0.511219   
O30      O      0.344410000000     0.364200000000     0.801380000000    -0.500449   
O31      O      0.398950000000     0.504220000000     0.885100000000    -0.491336   
O32      O      0.236990000000     0.423760000000     0.801540000000    -0.477992   
O33      O      0.328570000000     0.439710000000     0.833500000000    -0.892056   
O34      O      0.264390000000     0.445930000000     0.885040000000    -0.45595    
O35      O      0.237470000000     0.363710000000     0.865850000000    -0.499868   
O36      O      0.399330000000     0.446500000000     0.782000000000    -0.474259   
O37      O      0.264400000000     0.368920000000     0.782000000000    -0.504313   
O38      O      0.343560000000     0.530860000000     0.865340000000    -0.454288   
O39      O      0.404120000000     0.531090000000     0.801270000000    -0.494454   
O40      O      0.479620000000     0.348740000000     0.551700000000    -0.490777   
O41      O      0.559470000000     0.266580000000     0.635090000000    -0.510282   
O42      O      0.424420000000     0.266680000000     0.532000000000    -0.501131   
O43      O      0.419340000000     0.288400000000     0.615880000000    -0.492332   
O44      O      0.558860000000     0.343000000000     0.531780000000    -0.498556   
O45      O      0.479730000000     0.181730000000     0.615830000000    -0.493406   
O46      O      0.495030000000     0.272780000000     0.583540000000    -0.876284   
O47      O      0.501220000000     0.208420000000     0.532050000000    -0.503143   
O48      O      0.418930000000     0.181760000000     0.551430000000    -0.490253   
O49      O      0.501820000000     0.343310000000     0.635180000000    -0.480308   
O50      O      0.424430000000     0.208790000000     0.635110000000    -0.500049   
O51      O      0.586210000000     0.288030000000     0.551190000000    -0.494854   
O52      O      0.586610000000     0.348580000000     0.615240000000    -0.465375   
O53      O      0.404850000000     0.925010000000     0.365680000000    -0.459081   
O54      O      0.321670000000     0.003280000000     0.281790000000    -0.473074   
O55      O      0.322670000000     0.869470000000     0.385150000000    -0.51122    
O56      O      0.344410000000     0.864200000000     0.301380000000    -0.500499   
O57      O      0.398950000000     0.004220000000     0.385090000000    -0.49132    
O58      O      0.236990000000     0.923770000000     0.301530000000    -0.477914   
O59      O      0.328570000000     0.939710000000     0.333500000000    -0.89204    
O60      O      0.264390000000     0.945930000000     0.385040000000    -0.455922   
O61      O      0.237470000000     0.863700000000     0.365850000000    -0.499784   
O62      O      0.399330000000     0.946490000000     0.282000000000    -0.474386   
O63      O      0.264400000000     0.868920000000     0.282000000000    -0.504429   
O64      O      0.343560000000     0.030860000000     0.365340000000    -0.45418    
O65      O      0.404120000000     0.031090000000     0.301270000000    -0.49436    
O66      O      0.479620000000     0.848740000000     0.051700000000    -0.490756   
O67      O      0.559470000000     0.766580000000     0.135090000000    -0.510342   
O68      O      0.424420000000     0.766680000000     0.032000000000    -0.501088   
O69      O      0.419340000000     0.788400000000     0.115870000000    -0.492264   
O70      O      0.558860000000     0.843000000000     0.031780000000    -0.498576   
O71      O      0.479730000000     0.681720000000     0.115830000000    -0.493157   
O72      O      0.495020000000     0.772780000000     0.083540000000    -0.876429   
O73      O      0.501220000000     0.708420000000     0.032050000000    -0.503152   
O74      O      0.418930000000     0.681760000000     0.051420000000    -0.490445   
O75      O      0.501810000000     0.843310000000     0.135180000000    -0.480354   
O76      O      0.424430000000     0.708790000000     0.135110000000    -0.500203   
O77      O      0.586210000000     0.788030000000     0.051190000000    -0.494881   
O78      O      0.586610000000     0.848580000000     0.115240000000    -0.46551    
O79      O      0.404850000000     0.925010000000     0.865680000000    -0.45906    
O80      O      0.321670000000     0.003280000000     0.781790000000    -0.473085   
O81      O      0.322670000000     0.869470000000     0.885150000000    -0.511216   
O82      O      0.344410000000     0.864200000000     0.801380000000    -0.500494   
O83      O      0.398950000000     0.004220000000     0.885100000000    -0.491203   
O84      O      0.236990000000     0.923770000000     0.801540000000    -0.477882   
O85      O      0.328570000000     0.939710000000     0.833500000000    -0.892028   
O86      O      0.264390000000     0.945930000000     0.885040000000    -0.45592    
O87      O      0.237470000000     0.863700000000     0.865850000000    -0.499775   
O88      O      0.399330000000     0.946490000000     0.782000000000    -0.474361   
O89      O      0.264400000000     0.868920000000     0.782000000000    -0.504389   
O90      O      0.343560000000     0.030860000000     0.865340000000    -0.454184   
O91      O      0.404120000000     0.031090000000     0.801270000000    -0.494353   
O92      O      0.479620000000     0.848740000000     0.551700000000    -0.490764   
O93      O      0.559470000000     0.766580000000     0.635090000000    -0.510302   
O94      O      0.424420000000     0.766680000000     0.532000000000    -0.501098   
O95      O      0.419340000000     0.788400000000     0.615880000000    -0.492302   
O96      O      0.558860000000     0.843000000000     0.531780000000    -0.498571   
O97      O      0.479730000000     0.681720000000     0.615830000000    -0.493147   
O98      O      0.495020000000     0.772780000000     0.583540000000    -0.876431   
O99      O      0.501220000000     0.708420000000     0.532050000000    -0.503108   
O100     O      0.418930000000     0.681760000000     0.551430000000    -0.490403   
O101     O      0.501810000000     0.843310000000     0.635180000000    -0.480398   
O102     O      0.424430000000     0.708790000000     0.635110000000    -0.50019    
O103     O      0.586210000000     0.788030000000     0.551190000000    -0.494874   
O104     O      0.586610000000     0.848580000000     0.615240000000    -0.465409   
O105     O      0.904850000000     0.425010000000     0.365680000000    -0.459021   
O106     O      0.821670000000     0.503280000000     0.281790000000    -0.473191   
O107     O      0.822670000000     0.369470000000     0.385150000000    -0.511217   
O108     O      0.844410000000     0.364200000000     0.301380000000    -0.500345   
O109     O      0.898960000000     0.504220000000     0.385090000000    -0.491295   
O110     O      0.736990000000     0.423760000000     0.301530000000    -0.477917   
O111     O      0.828580000000     0.439710000000     0.333500000000    -0.892132   
O112     O      0.764390000000     0.445930000000     0.385040000000    -0.455914   
O113     O      0.737470000000     0.363710000000     0.365850000000    -0.499813   
O114     O      0.899330000000     0.446500000000     0.282000000000    -0.474215   
O115     O      0.764400000000     0.368920000000     0.282000000000    -0.504442   
O116     O      0.843560000000     0.530860000000     0.365340000000    -0.454165   
O117     O      0.904120000000     0.531090000000     0.301270000000    -0.494386   
O118     O      0.979620000000     0.348740000000     0.051700000000    -0.489636   
O119     O      0.059470000000     0.266580000000     0.135090000000    -0.510503   
O120     O      0.924420000000     0.266680000000     0.032000000000    -0.500865   
O121     O      0.919340000000     0.288400000000     0.115870000000    -0.49265    
O122     O      0.058860000000     0.343000000000     0.031780000000    -0.498747   
O123     O      0.979730000000     0.181730000000     0.115830000000    -0.492206   
O124     O      0.995030000000     0.272780000000     0.083540000000    -0.874175   
O125     O      0.001220000000     0.208420000000     0.032050000000    -0.504733   
O126     O      0.918930000000     0.181760000000     0.051420000000    -0.490654   
O127     O      0.001820000000     0.343310000000     0.135180000000    -0.481802   
O128     O      0.924430000000     0.208790000000     0.135110000000    -0.49989    
O129     O      0.086210000000     0.288030000000     0.051190000000    -0.494556   
O130     O      0.086610000000     0.348580000000     0.115240000000    -0.465161   
O131     O      0.904850000000     0.425010000000     0.865680000000    -0.459      
O132     O      0.821670000000     0.503280000000     0.781790000000    -0.473202   
O133     O      0.822670000000     0.369470000000     0.885150000000    -0.511213   
O134     O      0.844410000000     0.364200000000     0.801380000000    -0.50034    
O135     O      0.898960000000     0.504220000000     0.885100000000    -0.491177   
O136     O      0.736990000000     0.423760000000     0.801540000000    -0.477884   
O137     O      0.828580000000     0.439710000000     0.833500000000    -0.89212    
O138     O      0.764390000000     0.445930000000     0.885040000000    -0.455912   
O139     O      0.737470000000     0.363710000000     0.865850000000    -0.499804   
O140     O      0.899330000000     0.446500000000     0.782000000000    -0.474191   
O141     O      0.764400000000     0.368920000000     0.782000000000    -0.504402   
O142     O      0.843560000000     0.530860000000     0.865340000000    -0.454169   
O143     O      0.904120000000     0.531090000000     0.801270000000    -0.49438    
O144     O      0.979620000000     0.348740000000     0.551700000000    -0.489644   
O145     O      0.059470000000     0.266580000000     0.635090000000    -0.510463   
O146     O      0.924420000000     0.266680000000     0.532000000000    -0.500876   
O147     O      0.919340000000     0.288400000000     0.615880000000    -0.492688   
O148     O      0.058860000000     0.343000000000     0.531780000000    -0.498742   
O149     O      0.979730000000     0.181730000000     0.615830000000    -0.492196   
O150     O      0.995030000000     0.272780000000     0.583540000000    -0.874177   
O151     O      0.001220000000     0.208420000000     0.532050000000    -0.504689   
O152     O      0.918930000000     0.181760000000     0.551430000000    -0.490612   
O153     O      0.001820000000     0.343310000000     0.635180000000    -0.481847   
O154     O      0.924430000000     0.208790000000     0.635110000000    -0.499877   
O155     O      0.086210000000     0.288030000000     0.551190000000    -0.494549   
O156     O      0.086610000000     0.348580000000     0.615240000000    -0.46506    
O157     O      0.904850000000     0.925010000000     0.365680000000    -0.458985   
O158     O      0.821670000000     0.003280000000     0.281790000000    -0.473068   
O159     O      0.822670000000     0.869470000000     0.385150000000    -0.511209   
O160     O      0.844410000000     0.864200000000     0.301380000000    -0.50044    
O161     O      0.898950000000     0.004220000000     0.385090000000    -0.491257   
O162     O      0.736990000000     0.923770000000     0.301530000000    -0.477846   
O163     O      0.828570000000     0.939710000000     0.333500000000    -0.892103   
O164     O      0.764390000000     0.945930000000     0.385040000000    -0.455913   
O165     O      0.737470000000     0.863700000000     0.365850000000    -0.499713   
O166     O      0.899330000000     0.946490000000     0.282000000000    -0.474314   
O167     O      0.764400000000     0.868920000000     0.282000000000    -0.504412   
O168     O      0.843560000000     0.030860000000     0.365340000000    -0.454136   
O169     O      0.904120000000     0.031090000000     0.301270000000    -0.494259   
O170     O      0.979620000000     0.848740000000     0.051700000000    -0.489629   
O171     O      0.059470000000     0.766580000000     0.135090000000    -0.510532   
O172     O      0.924420000000     0.766680000000     0.032000000000    -0.500825   
O173     O      0.919340000000     0.788400000000     0.115870000000    -0.492562   
O174     O      0.058860000000     0.843000000000     0.031780000000    -0.498765   
O175     O      0.979730000000     0.681720000000     0.115830000000    -0.492051   
O176     O      0.995020000000     0.772780000000     0.083540000000    -0.874328   
O177     O      0.001220000000     0.708420000000     0.032050000000    -0.504697   
O178     O      0.918930000000     0.681760000000     0.051420000000    -0.490793   
O179     O      0.001820000000     0.843310000000     0.135180000000    -0.481795   
O180     O      0.924420000000     0.708790000000     0.135110000000    -0.499753   
O181     O      0.086210000000     0.788030000000     0.051190000000    -0.494579   
O182     O      0.086610000000     0.848580000000     0.115240000000    -0.465191   
O183     O      0.904850000000     0.925010000000     0.865680000000    -0.458963   
O184     O      0.821670000000     0.003280000000     0.781790000000    -0.473078   
O185     O      0.822670000000     0.869470000000     0.885150000000    -0.511205   
O186     O      0.844410000000     0.864200000000     0.801380000000    -0.500434   
O187     O      0.898950000000     0.004220000000     0.885100000000    -0.49114    
O188     O      0.736990000000     0.923770000000     0.801540000000    -0.477814   
O189     O      0.828570000000     0.939710000000     0.833500000000    -0.892091   
O190     O      0.764390000000     0.945930000000     0.885040000000    -0.455911   
O191     O      0.737470000000     0.863700000000     0.865850000000    -0.499704   
O192     O      0.899330000000     0.946490000000     0.782000000000    -0.474289   
O193     O      0.764400000000     0.868920000000     0.782000000000    -0.504373   
O194     O      0.843560000000     0.030860000000     0.865340000000    -0.45414    
O195     O      0.904120000000     0.031090000000     0.801270000000    -0.494252   
O196     O      0.979620000000     0.848740000000     0.551700000000    -0.489636   
O197     O      0.059470000000     0.766580000000     0.635090000000    -0.510492   
O198     O      0.924420000000     0.766680000000     0.532000000000    -0.500835   
O199     O      0.919340000000     0.788400000000     0.615880000000    -0.492601   
O200     O      0.058860000000     0.843000000000     0.531780000000    -0.49876    
O201     O      0.979730000000     0.681720000000     0.615830000000    -0.492041   
O202     O      0.995020000000     0.772780000000     0.583540000000    -0.87433    
O203     O      0.001220000000     0.708420000000     0.532050000000    -0.504653   
O204     O      0.918930000000     0.681760000000     0.551430000000    -0.490752   
O205     O      0.001820000000     0.843310000000     0.635180000000    -0.481839   
O206     O      0.924420000000     0.708790000000     0.635110000000    -0.499741   
O207     O      0.086210000000     0.788030000000     0.551190000000    -0.494572   
O208     O      0.086610000000     0.848580000000     0.615240000000    -0.46509    


