data_structure

_audit_creation_method RASPA-1.0
_audit_creation_date 2023-6-4
_audit_author_name 'Poobodin Mano'

_cell_length_a    28.4751
_cell_length_b    28.4173
_cell_length_c    31.3365
_cell_angle_alpha 90
_cell_angle_beta  90
_cell_angle_gamma 120
_cell_volume      21959.8

_symmetry_cell_setting          triclinic
_symmetry_space_group_name_Hall 'P 1'
_symmetry_space_group_name_H-M  'P 1'
_symmetry_Int_Tables_number     1

_symmetry_equiv_pos_as_xyz 'x,y,z'

loop_
_atom_site_label
_atom_site_type_symbol
_atom_site_fract_x
_atom_site_fract_y
_atom_site_fract_z
_atom_site_charge
C1       C      0.378990000000     0.396850000000     0.263290000000     0.535763   
C2       C      0.373020000000     0.389730000000     0.378120000000     0.533703   
C3       C      0.236880000000     0.398750000000     0.380600000000     0.525425   
C4       C      0.371020000000     0.533720000000     0.262570000000     0.524719   
C5       C      0.381290000000     0.536340000000     0.377560000000     0.534337   
C6       C      0.233080000000     0.389870000000     0.265250000000     0.530846   
C7       C      0.592660000000     0.326950000000     0.015720000000     0.533393   
C8       C      0.589110000000     0.316220000000     0.129990000000     0.535593   
C9       C      0.442920000000     0.178140000000     0.127370000000     0.531499   
C10      C      0.447320000000     0.319080000000     0.013080000000     0.527382   
C11      C      0.450350000000     0.323490000000     0.128420000000     0.531414   
C12      C      0.452220000000     0.180240000000     0.012820000000     0.533179   
C13      C      0.173450000000     0.327410000000     0.925380000000     0.03805    
C14      C      0.196120000000     0.417940000000     0.439330000000     0.0325583  
C15      C      0.638500000000     0.309950000000     0.960490000000     0.0384714  
C16      C      0.659940000000     0.400490000000     0.973820000000     0.0593232  
C17      C      0.661220000000     0.441730000000     0.001730000000     0.0536473  
C18      C      0.641630000000     0.302170000000     0.181910000000     0.0382709  
C19      C      0.641380000000     0.385010000000     0.180310000000     0.0354668  
C20      C      0.179320000000     0.321970000000     0.215080000000     0.0360893  
C21      C      0.176170000000     0.403660000000     0.215630000000     0.0553457  
C22      C      0.191640000000     0.457370000000     0.231500000000     0.0558747  
C23      C      0.442150000000     0.596660000000     0.217430000000     0.0380329  
C24      C      0.352100000000     0.575540000000     0.204390000000     0.0313678  
C25      C      0.459600000000     0.131640000000     0.182300000000     0.0382003  
C26      C      0.369570000000     0.111850000000     0.169960000000     0.0591072  
C27      C      0.328400000000     0.111430000000     0.142590000000     0.0559425  
C28      C      0.448460000000     0.589800000000     0.428670000000     0.03875    
C29      C      0.366190000000     0.590860000000     0.426450000000     0.0352738  
C30      C      0.466620000000     0.127550000000     0.961810000000     0.0361972  
C31      C      0.382440000000     0.125520000000     0.461850000000     0.0557222  
C32      C      0.344440000000     0.141210000000     0.477670000000     0.0594194  
C33      C      0.360320000000     0.322310000000     0.928830000000     0.040837   
C34      C      0.442080000000     0.406180000000     0.428040000000     0.0356374  
C35      C      0.380260000000     0.304430000000     0.961940000000     0.035154   
C36      C      0.460620000000     0.390090000000     0.463530000000     0.0551146  
C37      C      0.512830000000     0.429550000000     0.480660000000     0.0584526  
C38      C      0.447120000000     0.409380000000     0.213640000000     0.0398509  
C39      C      0.362060000000     0.328960000000     0.212060000000     0.0357182  
C40      C      0.465150000000     0.389620000000     0.180540000000     0.036062   
C41      C      0.378340000000     0.310910000000     0.176430000000     0.0553866  
C42      C      0.338140000000     0.260170000000     0.157510000000     0.0591748  
C43      C      0.378990000000     0.396850000000     0.763290000000     0.535902   
C44      C      0.373020000000     0.389730000000     0.878120000000     0.5337     
C45      C      0.236880000000     0.398750000000     0.880600000000     0.525445   
C46      C      0.371020000000     0.533720000000     0.762570000000     0.524755   
C47      C      0.381290000000     0.536340000000     0.877560000000     0.534181   
C48      C      0.233080000000     0.389870000000     0.765250000000     0.530854   
C49      C      0.592660000000     0.326950000000     0.515720000000     0.534166   
C50      C      0.589110000000     0.316220000000     0.629990000000     0.535627   
C51      C      0.442920000000     0.178140000000     0.627370000000     0.531529   
C52      C      0.447320000000     0.319080000000     0.513080000000     0.528244   
C53      C      0.450350000000     0.323490000000     0.628420000000     0.531445   
C54      C      0.452220000000     0.180240000000     0.512820000000     0.534053   
C55      C      0.173450000000     0.327410000000     0.425380000000     0.0380353  
C56      C      0.196120000000     0.417940000000     0.939340000000     0.0322657  
C57      C      0.638500000000     0.309950000000     0.460490000000     0.038341   
C58      C      0.659940000000     0.400490000000     0.473820000000     0.0582294  
C59      C      0.661220000000     0.441730000000     0.501730000000     0.0548641  
C60      C      0.641630000000     0.302170000000     0.681900000000     0.0383117  
C61      C      0.641380000000     0.385010000000     0.680310000000     0.0354844  
C62      C      0.179320000000     0.321970000000     0.715080000000     0.0361041  
C63      C      0.176170000000     0.403660000000     0.715630000000     0.0553601  
C64      C      0.191640000000     0.457370000000     0.731500000000     0.0558826  
C65      C      0.442150000000     0.596660000000     0.717430000000     0.0380503  
C66      C      0.352100000000     0.575540000000     0.704390000000     0.0313869  
C67      C      0.459600000000     0.131640000000     0.682300000000     0.0382242  
C68      C      0.369570000000     0.111850000000     0.669960000000     0.0591247  
C69      C      0.328400000000     0.111430000000     0.642590000000     0.0560104  
C70      C      0.448460000000     0.589800000000     0.928670000000     0.0388042  
C71      C      0.366190000000     0.590860000000     0.926450000000     0.0353186  
C72      C      0.466620000000     0.127550000000     0.461810000000     0.0361116  
C73      C      0.382440000000     0.125520000000     0.961850000000     0.055792   
C74      C      0.344440000000     0.141210000000     0.977670000000     0.0597721  
C75      C      0.360320000000     0.322310000000     0.428840000000     0.040764   
C76      C      0.442080000000     0.406180000000     0.928050000000     0.0356682  
C77      C      0.380260000000     0.304430000000     0.461940000000     0.0350699  
C78      C      0.460620000000     0.390090000000     0.963530000000     0.0551798  
C79      C      0.512830000000     0.429550000000     0.980660000000     0.0588147  
C80      C      0.447120000000     0.409380000000     0.713640000000     0.0398809  
C81      C      0.362060000000     0.328960000000     0.712060000000     0.0357359  
C82      C      0.465150000000     0.389620000000     0.680550000000     0.0360633  
C83      C      0.378340000000     0.310910000000     0.676430000000     0.0554054  
C84      C      0.338140000000     0.260170000000     0.657510000000     0.0592308  
C85      C      0.378990000000     0.896850000000     0.263290000000     0.535741   
C86      C      0.373020000000     0.889730000000     0.378120000000     0.533856   
C87      C      0.236880000000     0.898750000000     0.380600000000     0.525584   
C88      C      0.371020000000     0.033720000000     0.262570000000     0.524684   
C89      C      0.381290000000     0.036340000000     0.377560000000     0.534302   
C90      C      0.233080000000     0.889870000000     0.265250000000     0.530977   
C91      C      0.592660000000     0.826950000000     0.015720000000     0.533217   
C92      C      0.589110000000     0.816220000000     0.129990000000     0.535588   
C93      C      0.442920000000     0.678140000000     0.127370000000     0.531489   
C94      C      0.447320000000     0.819080000000     0.013080000000     0.527385   
C95      C      0.450340000000     0.823490000000     0.128420000000     0.531339   
C96      C      0.452220000000     0.680230000000     0.012820000000     0.533108   
C97      C      0.173450000000     0.827410000000     0.925380000000     0.0380541  
C98      C      0.196120000000     0.917940000000     0.439330000000     0.0325714  
C99      C      0.638500000000     0.809950000000     0.960490000000     0.0384575  
C100     C      0.659940000000     0.900490000000     0.973820000000     0.059304   
C101     C      0.661230000000     0.941730000000     0.001730000000     0.0536038  
C102     C      0.641630000000     0.802170000000     0.181910000000     0.0382629  
C103     C      0.641380000000     0.885000000000     0.180310000000     0.0355079  
C104     C      0.179320000000     0.821970000000     0.215080000000     0.0360922  
C105     C      0.176170000000     0.903660000000     0.215630000000     0.0553586  
C106     C      0.191640000000     0.957360000000     0.231500000000     0.0556493  
C107     C      0.442150000000     0.096660000000     0.217430000000     0.0380453  
C108     C      0.352100000000     0.075540000000     0.204390000000     0.0313815  
C109     C      0.459600000000     0.631640000000     0.182300000000     0.0381873  
C110     C      0.369570000000     0.611850000000     0.169960000000     0.0590973  
C111     C      0.328400000000     0.611430000000     0.142590000000     0.0559106  
C112     C      0.448460000000     0.089800000000     0.428670000000     0.0387207  
C113     C      0.366190000000     0.090860000000     0.426450000000     0.0352821  
C114     C      0.466630000000     0.627550000000     0.961810000000     0.036107   
C115     C      0.382440000000     0.625520000000     0.461850000000     0.0557099  
C116     C      0.344440000000     0.641210000000     0.477670000000     0.059412   
C117     C      0.360320000000     0.822310000000     0.928830000000     0.0408348  
C118     C      0.442080000000     0.906180000000     0.428040000000     0.0356144  
C119     C      0.380260000000     0.804430000000     0.961940000000     0.0351572  
C120     C      0.460610000000     0.890090000000     0.463530000000     0.0551192  
C121     C      0.512830000000     0.929550000000     0.480660000000     0.0584242  
C122     C      0.447110000000     0.909380000000     0.213640000000     0.0398893  
C123     C      0.362060000000     0.828960000000     0.212060000000     0.0357289  
C124     C      0.465150000000     0.889620000000     0.180540000000     0.0360397  
C125     C      0.378340000000     0.810900000000     0.176430000000     0.0553662  
C126     C      0.338140000000     0.760170000000     0.157510000000     0.0591644  
C127     C      0.378990000000     0.896850000000     0.763290000000     0.53588    
C128     C      0.373020000000     0.889730000000     0.878120000000     0.533854   
C129     C      0.236880000000     0.898750000000     0.880600000000     0.525604   
C130     C      0.371020000000     0.033720000000     0.762570000000     0.52472    
C131     C      0.381290000000     0.036340000000     0.877560000000     0.534145   
C132     C      0.233080000000     0.889870000000     0.765250000000     0.530985   
C133     C      0.592660000000     0.826950000000     0.515720000000     0.53399    
C134     C      0.589110000000     0.816220000000     0.629990000000     0.535622   
C135     C      0.442920000000     0.678140000000     0.627370000000     0.531518   
C136     C      0.447320000000     0.819080000000     0.513080000000     0.528247   
C137     C      0.450340000000     0.823490000000     0.628420000000     0.53137    
C138     C      0.452220000000     0.680230000000     0.512820000000     0.533982   
C139     C      0.173450000000     0.827410000000     0.425380000000     0.0380394  
C140     C      0.196120000000     0.917940000000     0.939340000000     0.0322789  
C141     C      0.638500000000     0.809950000000     0.460490000000     0.0383271  
C142     C      0.659940000000     0.900490000000     0.473820000000     0.0582102  
C143     C      0.661230000000     0.941730000000     0.501730000000     0.0548205  
C144     C      0.641630000000     0.802170000000     0.681900000000     0.0383037  
C145     C      0.641380000000     0.885000000000     0.680310000000     0.0355256  
C146     C      0.179320000000     0.821970000000     0.715080000000     0.036107   
C147     C      0.176170000000     0.903660000000     0.715630000000     0.055373   
C148     C      0.191640000000     0.957360000000     0.731500000000     0.0556571  
C149     C      0.442150000000     0.096660000000     0.717430000000     0.0380628  
C150     C      0.352100000000     0.075540000000     0.704390000000     0.0314006  
C151     C      0.459600000000     0.631640000000     0.682300000000     0.0382113  
C152     C      0.369570000000     0.611850000000     0.669960000000     0.0591148  
C153     C      0.328400000000     0.611430000000     0.642590000000     0.0559785  
C154     C      0.448460000000     0.089800000000     0.928670000000     0.0387749  
C155     C      0.366190000000     0.090860000000     0.926450000000     0.0353268  
C156     C      0.466630000000     0.627550000000     0.461810000000     0.0360212  
C157     C      0.382440000000     0.625520000000     0.961850000000     0.0557797  
C158     C      0.344440000000     0.641210000000     0.977670000000     0.0597646  
C159     C      0.360320000000     0.822310000000     0.428840000000     0.0407618  
C160     C      0.442080000000     0.906180000000     0.928050000000     0.0356452  
C161     C      0.380260000000     0.804430000000     0.461940000000     0.0350731  
C162     C      0.460610000000     0.890090000000     0.963530000000     0.0551845  
C163     C      0.512830000000     0.929550000000     0.980660000000     0.0587862  
C164     C      0.447110000000     0.909380000000     0.713640000000     0.0399193  
C165     C      0.362060000000     0.828960000000     0.712060000000     0.0357466  
C166     C      0.465150000000     0.889620000000     0.680550000000     0.036041   
C167     C      0.378340000000     0.810900000000     0.676430000000     0.055385   
C168     C      0.338140000000     0.760170000000     0.657510000000     0.0592204  
C169     C      0.878990000000     0.396850000000     0.263290000000     0.535723   
C170     C      0.873020000000     0.389730000000     0.378120000000     0.533711   
C171     C      0.736880000000     0.398750000000     0.380600000000     0.525458   
C172     C      0.871020000000     0.533720000000     0.262570000000     0.524721   
C173     C      0.881290000000     0.536340000000     0.377560000000     0.534356   
C174     C      0.733080000000     0.389870000000     0.265250000000     0.530877   
C175     C      0.092660000000     0.326950000000     0.015720000000     0.53313    
C176     C      0.089110000000     0.316220000000     0.129990000000     0.535321   
C177     C      0.942920000000     0.178140000000     0.127370000000     0.531654   
C178     C      0.947320000000     0.319080000000     0.013080000000     0.527385   
C179     C      0.950350000000     0.323490000000     0.128420000000     0.533259   
C180     C      0.952220000000     0.180240000000     0.012820000000     0.535025   
C181     C      0.673450000000     0.327410000000     0.925380000000     0.0381176  
C182     C      0.696120000000     0.417940000000     0.439330000000     0.03261    
C183     C      0.138500000000     0.309950000000     0.960490000000     0.0383629  
C184     C      0.159940000000     0.400490000000     0.973820000000     0.0592498  
C185     C      0.161220000000     0.441730000000     0.001730000000     0.0535993  
C186     C      0.141630000000     0.302170000000     0.181910000000     0.038161   
C187     C      0.141380000000     0.385010000000     0.180310000000     0.0353647  
C188     C      0.679320000000     0.321970000000     0.215080000000     0.0361476  
C189     C      0.676170000000     0.403660000000     0.215630000000     0.0553986  
C190     C      0.691640000000     0.457370000000     0.231500000000     0.0559946  
C191     C      0.942150000000     0.596660000000     0.217430000000     0.0374454  
C192     C      0.852100000000     0.575540000000     0.204390000000     0.0312881  
C193     C      0.959600000000     0.131640000000     0.182300000000     0.0402714  
C194     C      0.869570000000     0.111850000000     0.169960000000     0.0592193  
C195     C      0.828400000000     0.111430000000     0.142590000000     0.055958   
C196     C      0.948460000000     0.589800000000     0.428670000000     0.0381185  
C197     C      0.866190000000     0.590860000000     0.426450000000     0.0352153  
C198     C      0.966630000000     0.127550000000     0.961810000000     0.038344   
C199     C      0.882440000000     0.125520000000     0.461850000000     0.0559083  
C200     C      0.844440000000     0.141210000000     0.477670000000     0.0593966  
C201     C      0.860320000000     0.322310000000     0.928830000000     0.0408155  
C202     C      0.942080000000     0.406180000000     0.428040000000     0.0352021  
C203     C      0.880260000000     0.304430000000     0.961940000000     0.0352823  
C204     C      0.960610000000     0.390090000000     0.463530000000     0.0569297  
C205     C      0.012830000000     0.429550000000     0.480660000000     0.0563264  
C206     C      0.947120000000     0.409380000000     0.213640000000     0.039251   
C207     C      0.862050000000     0.328960000000     0.212060000000     0.0356026  
C208     C      0.965150000000     0.389620000000     0.180540000000     0.0382737  
C209     C      0.878340000000     0.310910000000     0.176430000000     0.0555897  
C210     C      0.838140000000     0.260170000000     0.157510000000     0.0591699  
C211     C      0.878990000000     0.396850000000     0.763290000000     0.535862   
C212     C      0.873020000000     0.389730000000     0.878120000000     0.533708   
C213     C      0.736880000000     0.398750000000     0.880600000000     0.525478   
C214     C      0.871020000000     0.533720000000     0.762570000000     0.524757   
C215     C      0.881290000000     0.536340000000     0.877560000000     0.534199   
C216     C      0.733080000000     0.389870000000     0.765250000000     0.530885   
C217     C      0.092660000000     0.326950000000     0.515720000000     0.533903   
C218     C      0.089110000000     0.316220000000     0.629990000000     0.535355   
C219     C      0.942920000000     0.178140000000     0.627370000000     0.531683   
C220     C      0.947320000000     0.319080000000     0.513080000000     0.528247   
C221     C      0.950350000000     0.323490000000     0.628420000000     0.53329    
C222     C      0.952220000000     0.180240000000     0.512820000000     0.5359     
C223     C      0.673450000000     0.327410000000     0.425380000000     0.0381031  
C224     C      0.696120000000     0.417940000000     0.939340000000     0.0323175  
C225     C      0.138500000000     0.309950000000     0.460490000000     0.0382322  
C226     C      0.159940000000     0.400490000000     0.473820000000     0.0581549  
C227     C      0.161220000000     0.441730000000     0.501730000000     0.0548168  
C228     C      0.141630000000     0.302170000000     0.681900000000     0.038202   
C229     C      0.141380000000     0.385010000000     0.680310000000     0.0353824  
C230     C      0.679320000000     0.321970000000     0.715080000000     0.0361625  
C231     C      0.676170000000     0.403660000000     0.715630000000     0.055413   
C232     C      0.691640000000     0.457370000000     0.731500000000     0.0560024  
C233     C      0.942150000000     0.596660000000     0.717430000000     0.037463   
C234     C      0.852100000000     0.575540000000     0.704390000000     0.0313072  
C235     C      0.959600000000     0.131640000000     0.682300000000     0.0402947  
C236     C      0.869570000000     0.111850000000     0.669960000000     0.0592368  
C237     C      0.828400000000     0.111430000000     0.642590000000     0.0560259  
C238     C      0.948460000000     0.589800000000     0.928670000000     0.038174   
C239     C      0.866190000000     0.590860000000     0.926450000000     0.0352601  
C240     C      0.966630000000     0.127550000000     0.461810000000     0.0382632  
C241     C      0.882440000000     0.125520000000     0.961850000000     0.0559777  
C242     C      0.844440000000     0.141210000000     0.977670000000     0.0597486  
C243     C      0.860320000000     0.322310000000     0.428840000000     0.0407425  
C244     C      0.942080000000     0.406180000000     0.928050000000     0.0352333  
C245     C      0.880260000000     0.304430000000     0.461940000000     0.0351987  
C246     C      0.960610000000     0.390090000000     0.963530000000     0.0569914  
C247     C      0.012830000000     0.429550000000     0.980660000000     0.0566921  
C248     C      0.947120000000     0.409380000000     0.713640000000     0.0392808  
C249     C      0.862050000000     0.328960000000     0.712060000000     0.0356204  
C250     C      0.965150000000     0.389620000000     0.680550000000     0.0382741  
C251     C      0.878340000000     0.310910000000     0.676430000000     0.0556084  
C252     C      0.838140000000     0.260170000000     0.657510000000     0.0592259  
C253     C      0.878990000000     0.896850000000     0.263290000000     0.535756   
C254     C      0.873020000000     0.889730000000     0.378120000000     0.533671   
C255     C      0.736880000000     0.898750000000     0.380600000000     0.525621   
C256     C      0.871020000000     0.033720000000     0.262570000000     0.524686   
C257     C      0.881290000000     0.036340000000     0.377560000000     0.53414    
C258     C      0.733080000000     0.889870000000     0.265250000000     0.531008   
C259     C      0.092660000000     0.826950000000     0.015720000000     0.532959   
C260     C      0.089110000000     0.816220000000     0.129990000000     0.535321   
C261     C      0.942930000000     0.678140000000     0.127370000000     0.531653   
C262     C      0.947330000000     0.819080000000     0.013080000000     0.527437   
C263     C      0.950340000000     0.823490000000     0.128420000000     0.533158   
C264     C      0.952220000000     0.680230000000     0.012820000000     0.534971   
C265     C      0.673450000000     0.827410000000     0.925380000000     0.0381234  
C266     C      0.696120000000     0.917940000000     0.439330000000     0.0326241  
C267     C      0.138500000000     0.809950000000     0.960490000000     0.0383482  
C268     C      0.159940000000     0.900490000000     0.973820000000     0.05923    
C269     C      0.161230000000     0.941730000000     0.001730000000     0.0535549  
C270     C      0.141630000000     0.802170000000     0.181910000000     0.0381526  
C271     C      0.141380000000     0.885000000000     0.180310000000     0.0354057  
C272     C      0.679320000000     0.821970000000     0.215080000000     0.0361513  
C273     C      0.676170000000     0.903660000000     0.215630000000     0.0554122  
C274     C      0.691640000000     0.957360000000     0.231500000000     0.0557684  
C275     C      0.942150000000     0.096660000000     0.217430000000     0.0374582  
C276     C      0.852100000000     0.075540000000     0.204390000000     0.031341   
C277     C      0.959600000000     0.631640000000     0.182300000000     0.040247   
C278     C      0.869580000000     0.611850000000     0.169960000000     0.0592856  
C279     C      0.828400000000     0.611430000000     0.142590000000     0.0558933  
C280     C      0.948460000000     0.089800000000     0.428670000000     0.0381385  
C281     C      0.866190000000     0.090860000000     0.426450000000     0.0352233  
C282     C      0.966630000000     0.627550000000     0.961810000000     0.0383305  
C283     C      0.882440000000     0.625520000000     0.461850000000     0.0558979  
C284     C      0.844440000000     0.641210000000     0.477670000000     0.0593922  
C285     C      0.860320000000     0.822310000000     0.928830000000     0.0408026  
C286     C      0.942080000000     0.906180000000     0.428040000000     0.0351917  
C287     C      0.880260000000     0.804430000000     0.961940000000     0.0352912  
C288     C      0.960610000000     0.890090000000     0.463530000000     0.0569121  
C289     C      0.012830000000     0.929550000000     0.480660000000     0.0562988  
C290     C      0.947110000000     0.909380000000     0.213640000000     0.039259   
C291     C      0.862050000000     0.828960000000     0.212060000000     0.0356466  
C292     C      0.965150000000     0.889620000000     0.180540000000     0.0382638  
C293     C      0.878340000000     0.810900000000     0.176430000000     0.0555558  
C294     C      0.838140000000     0.760170000000     0.157510000000     0.0591668  
C295     C      0.878990000000     0.896850000000     0.763290000000     0.535895   
C296     C      0.873020000000     0.889730000000     0.878120000000     0.533668   
C297     C      0.736880000000     0.898750000000     0.880600000000     0.52564    
C298     C      0.871020000000     0.033720000000     0.762570000000     0.524722   
C299     C      0.881290000000     0.036340000000     0.877560000000     0.533984   
C300     C      0.733080000000     0.889870000000     0.765250000000     0.531016   
C301     C      0.092660000000     0.826950000000     0.515720000000     0.533732   
C302     C      0.089110000000     0.816220000000     0.629990000000     0.535355   
C303     C      0.942930000000     0.678140000000     0.627370000000     0.531683   
C304     C      0.947330000000     0.819080000000     0.513080000000     0.528298   
C305     C      0.950340000000     0.823490000000     0.628420000000     0.533189   
C306     C      0.952220000000     0.680230000000     0.512820000000     0.535845   
C307     C      0.673450000000     0.827410000000     0.425380000000     0.0381089  
C308     C      0.696120000000     0.917940000000     0.939340000000     0.0323317  
C309     C      0.138500000000     0.809950000000     0.460490000000     0.0382176  
C310     C      0.159940000000     0.900490000000     0.473820000000     0.0581351  
C311     C      0.161230000000     0.941730000000     0.501730000000     0.0547723  
C312     C      0.141630000000     0.802170000000     0.681900000000     0.0381936  
C313     C      0.141380000000     0.885000000000     0.680310000000     0.0354235  
C314     C      0.679320000000     0.821970000000     0.715080000000     0.0361661  
C315     C      0.676170000000     0.903660000000     0.715630000000     0.0554266  
C316     C      0.691640000000     0.957360000000     0.731500000000     0.0557761  
C317     C      0.942150000000     0.096660000000     0.717430000000     0.0374758  
C318     C      0.852100000000     0.075540000000     0.704390000000     0.0313601  
C319     C      0.959600000000     0.631640000000     0.682300000000     0.0402703  
C320     C      0.869580000000     0.611850000000     0.669960000000     0.0593031  
C321     C      0.828400000000     0.611430000000     0.642590000000     0.0559612  
C322     C      0.948460000000     0.089800000000     0.928670000000     0.038194   
C323     C      0.866190000000     0.090860000000     0.926450000000     0.0352681  
C324     C      0.966630000000     0.627550000000     0.461810000000     0.0382497  
C325     C      0.882440000000     0.625520000000     0.961850000000     0.0559673  
C326     C      0.844440000000     0.641210000000     0.977670000000     0.0597442  
C327     C      0.860320000000     0.822310000000     0.428840000000     0.0407296  
C328     C      0.942080000000     0.906180000000     0.928050000000     0.0352229  
C329     C      0.880260000000     0.804430000000     0.461940000000     0.0352075  
C330     C      0.960610000000     0.890090000000     0.963530000000     0.0569739  
C331     C      0.012830000000     0.929550000000     0.980660000000     0.0566645  
C332     C      0.947110000000     0.909380000000     0.713640000000     0.0392888  
C333     C      0.862050000000     0.828960000000     0.712060000000     0.0356643  
C334     C      0.965150000000     0.889620000000     0.680550000000     0.0382642  
C335     C      0.878340000000     0.810900000000     0.676430000000     0.0555745  
C336     C      0.838140000000     0.760170000000     0.657510000000     0.0592227  
Fe1      Fe     0.294590000000     0.372610000000     0.321330000000     1.36078    
Fe2      Fe     0.295450000000     0.474760000000     0.321710000000     1.36696    
Fe3      Fe     0.397130000000     0.474890000000     0.320720000000     1.36451    
Fe4      Fe     0.529650000000     0.239510000000     0.071050000000     1.36402    
Fe5      Fe     0.428120000000     0.240290000000     0.070120000000     1.37484    
Fe6      Fe     0.529910000000     0.342030000000     0.072590000000     1.37216    
Fe7      Fe     0.294590000000     0.372610000000     0.821330000000     1.36079    
Fe8      Fe     0.295450000000     0.474760000000     0.821710000000     1.36701    
Fe9      Fe     0.397130000000     0.474890000000     0.820710000000     1.36451    
Fe10     Fe     0.529650000000     0.239510000000     0.571050000000     1.36421    
Fe11     Fe     0.428120000000     0.240290000000     0.570120000000     1.37504    
Fe12     Fe     0.529910000000     0.342030000000     0.572590000000     1.37232    
Fe13     Fe     0.294590000000     0.872610000000     0.321330000000     1.3606     
Fe14     Fe     0.295450000000     0.974760000000     0.321710000000     1.36681    
Fe15     Fe     0.397130000000     0.974890000000     0.320720000000     1.36421    
Fe16     Fe     0.529650000000     0.739510000000     0.071050000000     1.364      
Fe17     Fe     0.428110000000     0.740290000000     0.070120000000     1.3748     
Fe18     Fe     0.529910000000     0.842030000000     0.072590000000     1.37208    
Fe19     Fe     0.294590000000     0.872610000000     0.821330000000     1.36061    
Fe20     Fe     0.295450000000     0.974760000000     0.821710000000     1.36686    
Fe21     Fe     0.397130000000     0.974890000000     0.820710000000     1.36421    
Fe22     Fe     0.529650000000     0.739510000000     0.571050000000     1.36419    
Fe23     Fe     0.428110000000     0.740290000000     0.570120000000     1.37499    
Fe24     Fe     0.529910000000     0.842030000000     0.572590000000     1.37224    
Fe25     Fe     0.794590000000     0.372610000000     0.321330000000     1.36083    
Fe26     Fe     0.795450000000     0.474760000000     0.321710000000     1.367      
Fe27     Fe     0.897130000000     0.474890000000     0.320720000000     1.36465    
Fe28     Fe     0.029650000000     0.239510000000     0.071050000000     1.36181    
Fe29     Fe     0.928120000000     0.240290000000     0.070120000000     1.37493    
Fe30     Fe     0.029910000000     0.342030000000     0.072590000000     1.36999    
Fe31     Fe     0.794590000000     0.372610000000     0.821330000000     1.36084    
Fe32     Fe     0.795450000000     0.474760000000     0.821710000000     1.36705    
Fe33     Fe     0.897130000000     0.474890000000     0.820710000000     1.36466    
Fe34     Fe     0.029650000000     0.239510000000     0.571050000000     1.362      
Fe35     Fe     0.928120000000     0.240290000000     0.570120000000     1.37512    
Fe36     Fe     0.029910000000     0.342030000000     0.572590000000     1.37015    
Fe37     Fe     0.794590000000     0.872610000000     0.321330000000     1.36067    
Fe38     Fe     0.795450000000     0.974760000000     0.321710000000     1.36684    
Fe39     Fe     0.897130000000     0.974890000000     0.320720000000     1.36434    
Fe40     Fe     0.029650000000     0.739510000000     0.071050000000     1.36183    
Fe41     Fe     0.928120000000     0.740290000000     0.070120000000     1.37501    
Fe42     Fe     0.029910000000     0.842030000000     0.072590000000     1.36995    
Fe43     Fe     0.794590000000     0.872610000000     0.821330000000     1.36068    
Fe44     Fe     0.795450000000     0.974760000000     0.821710000000     1.36689    
Fe45     Fe     0.897130000000     0.974890000000     0.820710000000     1.36434    
Fe46     Fe     0.029650000000     0.739510000000     0.571050000000     1.36202    
Fe47     Fe     0.928120000000     0.740290000000     0.570120000000     1.37521    
Fe48     Fe     0.029910000000     0.842030000000     0.572590000000     1.37011    
H1       H      0.616250000000     0.266810000000     0.967640000000     0.0382823  
H2       H      0.177630000000     0.297180000000     0.907280000000     0.0375602  
H3       H      0.219610000000     0.461210000000     0.432710000000     0.0454935  
H4       H      0.193380000000     0.295530000000     0.227510000000     0.0356061  
H5       H      0.628710000000     0.261770000000     0.169730000000     0.0357209  
H6       H      0.627110000000     0.410920000000     0.166960000000     0.0447714  
H7       H      0.502550000000     0.153240000000     0.174730000000     0.037841   
H8       H      0.472180000000     0.591810000000     0.235140000000     0.0374948  
H9       H      0.309040000000     0.552620000000     0.211340000000     0.0515897  
H10      H      0.506850000000     0.141070000000     0.974500000000     0.0365204  
H11      H      0.475470000000     0.576230000000     0.416730000000     0.0349143  
H12      H      0.326230000000     0.576960000000     0.412910000000     0.0421076  
H13      H      0.354180000000     0.263730000000     0.974010000000     0.0460792  
H14      H      0.320240000000     0.294530000000     0.916390000000     0.0364096  
H15      H      0.467350000000     0.446790000000     0.415170000000     0.0418947  
H16      H      0.506540000000     0.415100000000     0.169600000000     0.0388931  
H17      H      0.475280000000     0.448750000000     0.227150000000     0.0351422  
H18      H      0.320920000000     0.304270000000     0.223980000000     0.041796   
H19      H      0.616250000000     0.266810000000     0.467640000000     0.0380685  
H20      H      0.177630000000     0.297180000000     0.407280000000     0.0375144  
H21      H      0.219610000000     0.461210000000     0.932710000000     0.045721   
H22      H      0.193380000000     0.295530000000     0.727510000000     0.0356224  
H23      H      0.628710000000     0.261770000000     0.669730000000     0.0357529  
H24      H      0.627110000000     0.410920000000     0.666960000000     0.044796   
H25      H      0.502550000000     0.153240000000     0.674730000000     0.0378693  
H26      H      0.472180000000     0.591810000000     0.735140000000     0.0375096  
H27      H      0.309040000000     0.552620000000     0.711340000000     0.0516     
H28      H      0.506850000000     0.141070000000     0.474490000000     0.0362822  
H29      H      0.475470000000     0.576230000000     0.916730000000     0.0349582  
H30      H      0.326230000000     0.576960000000     0.912910000000     0.0421369  
H31      H      0.354180000000     0.263730000000     0.474020000000     0.0458703  
H32      H      0.320240000000     0.294530000000     0.416390000000     0.0363754  
H33      H      0.467350000000     0.446790000000     0.915180000000     0.0419302  
H34      H      0.506540000000     0.415100000000     0.669600000000     0.0389419  
H35      H      0.475280000000     0.448750000000     0.727150000000     0.0351607  
H36      H      0.320920000000     0.304270000000     0.723980000000     0.0418098  
H37      H      0.616250000000     0.766810000000     0.967640000000     0.0382861  
H38      H      0.177630000000     0.797180000000     0.907280000000     0.0375499  
H39      H      0.219620000000     0.961220000000     0.432710000000     0.045441   
H40      H      0.193390000000     0.795530000000     0.227510000000     0.035601   
H41      H      0.628710000000     0.761770000000     0.169730000000     0.0357145  
H42      H      0.627110000000     0.910920000000     0.166960000000     0.0447387  
H43      H      0.502550000000     0.653240000000     0.174730000000     0.0378313  
H44      H      0.472180000000     0.091810000000     0.235140000000     0.0375211  
H45      H      0.309040000000     0.052620000000     0.211340000000     0.0516204  
H46      H      0.506850000000     0.641070000000     0.974500000000     0.0365235  
H47      H      0.475470000000     0.076230000000     0.416730000000     0.0349569  
H48      H      0.326230000000     0.076960000000     0.412910000000     0.0421393  
H49      H      0.354180000000     0.763720000000     0.974010000000     0.0460721  
H50      H      0.320240000000     0.794530000000     0.916390000000     0.0364055  
H51      H      0.467350000000     0.946790000000     0.415170000000     0.0418575  
H52      H      0.506540000000     0.915100000000     0.169600000000     0.038872   
H53      H      0.475280000000     0.948750000000     0.227150000000     0.035091   
H54      H      0.320920000000     0.804270000000     0.223980000000     0.0417872  
H55      H      0.616250000000     0.766810000000     0.467640000000     0.0380723  
H56      H      0.177630000000     0.797180000000     0.407280000000     0.037504   
H57      H      0.219620000000     0.961220000000     0.932710000000     0.0456685  
H58      H      0.193390000000     0.795530000000     0.727510000000     0.0356172  
H59      H      0.628710000000     0.761770000000     0.669730000000     0.0357465  
H60      H      0.627110000000     0.910920000000     0.666960000000     0.0447634  
H61      H      0.502550000000     0.653240000000     0.674730000000     0.0378596  
H62      H      0.472180000000     0.091810000000     0.735140000000     0.0375359  
H63      H      0.309040000000     0.052620000000     0.711340000000     0.0516308  
H64      H      0.506850000000     0.641070000000     0.474490000000     0.0362853  
H65      H      0.475470000000     0.076230000000     0.916730000000     0.0350007  
H66      H      0.326230000000     0.076960000000     0.912910000000     0.0421686  
H67      H      0.354180000000     0.763720000000     0.474020000000     0.0458632  
H68      H      0.320240000000     0.794530000000     0.416390000000     0.0363712  
H69      H      0.467350000000     0.946790000000     0.915180000000     0.041893   
H70      H      0.506540000000     0.915100000000     0.669600000000     0.0389208  
H71      H      0.475280000000     0.948750000000     0.727150000000     0.0351095  
H72      H      0.320920000000     0.804270000000     0.723980000000     0.041801   
H73      H      0.116250000000     0.266810000000     0.967640000000     0.0381665  
H74      H      0.677630000000     0.297180000000     0.907280000000     0.0376655  
H75      H      0.719610000000     0.461210000000     0.432710000000     0.0455332  
H76      H      0.693380000000     0.295530000000     0.227510000000     0.0356881  
H77      H      0.128710000000     0.261770000000     0.169730000000     0.0356148  
H78      H      0.127110000000     0.410920000000     0.166960000000     0.0447023  
H79      H      0.002550000000     0.153240000000     0.174730000000     0.0362177  
H80      H      0.972180000000     0.591810000000     0.235140000000     0.0380122  
H81      H      0.809040000000     0.552620000000     0.211340000000     0.0516351  
H82      H      0.006850000000     0.141070000000     0.974500000000     0.0349903  
H83      H      0.975470000000     0.576230000000     0.416730000000     0.0354568  
H84      H      0.826230000000     0.576960000000     0.412910000000     0.0421692  
H85      H      0.854180000000     0.263730000000     0.974010000000     0.0460932  
H86      H      0.820240000000     0.294530000000     0.916390000000     0.0364721  
H87      H      0.967350000000     0.446790000000     0.415170000000     0.0423886  
H88      H      0.006540000000     0.415100000000     0.169600000000     0.0373528  
H89      H      0.975280000000     0.448750000000     0.227150000000     0.0356734  
H90      H      0.820920000000     0.304270000000     0.223980000000     0.0418667  
H91      H      0.116250000000     0.266810000000     0.467640000000     0.0379524  
H92      H      0.677630000000     0.297180000000     0.407280000000     0.0376198  
H93      H      0.719610000000     0.461210000000     0.932710000000     0.0457605  
H94      H      0.693380000000     0.295530000000     0.727510000000     0.0357042  
H95      H      0.128710000000     0.261770000000     0.669730000000     0.0356468  
H96      H      0.127110000000     0.410920000000     0.666960000000     0.044727   
H97      H      0.002550000000     0.153240000000     0.674730000000     0.0362464  
H98      H      0.972180000000     0.591810000000     0.735140000000     0.0380267  
H99      H      0.809040000000     0.552620000000     0.711340000000     0.0516454  
H100     H      0.006850000000     0.141070000000     0.474490000000     0.0347488  
H101     H      0.975470000000     0.576230000000     0.916730000000     0.0354996  
H102     H      0.826230000000     0.576960000000     0.912910000000     0.0421983  
H103     H      0.854180000000     0.263730000000     0.474020000000     0.0458848  
H104     H      0.820240000000     0.294530000000     0.416390000000     0.036438   
H105     H      0.967350000000     0.446790000000     0.915180000000     0.0424233  
H106     H      0.006540000000     0.415100000000     0.669600000000     0.0374023  
H107     H      0.975280000000     0.448750000000     0.727150000000     0.0356917  
H108     H      0.820920000000     0.304270000000     0.723980000000     0.0418804  
H109     H      0.116250000000     0.766810000000     0.967640000000     0.0381693  
H110     H      0.677630000000     0.797180000000     0.907280000000     0.0376564  
H111     H      0.719620000000     0.961220000000     0.432710000000     0.0454811  
H112     H      0.693390000000     0.795530000000     0.227510000000     0.0356833  
H113     H      0.128710000000     0.761770000000     0.169730000000     0.0356076  
H114     H      0.127110000000     0.910920000000     0.166960000000     0.0446694  
H115     H      0.002550000000     0.653240000000     0.174730000000     0.0362085  
H116     H      0.972180000000     0.091810000000     0.235140000000     0.0380401  
H117     H      0.809040000000     0.052620000000     0.211340000000     0.0516559  
H118     H      0.006850000000     0.641070000000     0.974500000000     0.0349735  
H119     H      0.975480000000     0.076230000000     0.416730000000     0.0354939  
H120     H      0.826230000000     0.076960000000     0.412910000000     0.0422038  
H121     H      0.854180000000     0.763720000000     0.974010000000     0.0460928  
H122     H      0.820240000000     0.794530000000     0.916390000000     0.0364692  
H123     H      0.967350000000     0.946790000000     0.415170000000     0.042354   
H124     H      0.006540000000     0.915100000000     0.169600000000     0.0373296  
H125     H      0.975280000000     0.948750000000     0.227150000000     0.0356321  
H126     H      0.820920000000     0.804270000000     0.223980000000     0.0418517  
H127     H      0.116250000000     0.766810000000     0.467640000000     0.0379551  
H128     H      0.677630000000     0.797180000000     0.407280000000     0.0376107  
H129     H      0.719620000000     0.961220000000     0.932710000000     0.0457083  
H130     H      0.693390000000     0.795530000000     0.727510000000     0.0356995  
H131     H      0.128710000000     0.761770000000     0.669730000000     0.0356396  
H132     H      0.127110000000     0.910920000000     0.666960000000     0.0446941  
H133     H      0.002550000000     0.653240000000     0.674730000000     0.0362372  
H134     H      0.972180000000     0.091810000000     0.735140000000     0.0380546  
H135     H      0.809040000000     0.052620000000     0.711340000000     0.0516662  
H136     H      0.006850000000     0.641070000000     0.474490000000     0.034732   
H137     H      0.975480000000     0.076230000000     0.916730000000     0.0355366  
H138     H      0.826230000000     0.076960000000     0.912910000000     0.0422329  
H139     H      0.854180000000     0.763720000000     0.474020000000     0.0458843  
H140     H      0.820240000000     0.794530000000     0.416390000000     0.0364351  
H141     H      0.967350000000     0.946790000000     0.915180000000     0.0423887  
H142     H      0.006540000000     0.915100000000     0.669600000000     0.037379   
H143     H      0.975280000000     0.948750000000     0.727150000000     0.0356503  
H144     H      0.820920000000     0.804270000000     0.723980000000     0.0418654  
N1       N      0.202020000000     0.381330000000     0.414750000000    -0.194567   
N2       N      0.630310000000     0.346080000000     0.983630000000    -0.198223   
N3       N      0.664620000000     0.480640000000     0.028700000000    -0.0898408  
N4       N      0.623920000000     0.334290000000     0.163940000000    -0.197621   
N5       N      0.196240000000     0.372300000000     0.232380000000    -0.197529   
N6       N      0.205280000000     0.507400000000     0.246460000000    -0.101015   
N7       N      0.388450000000     0.568790000000     0.228500000000    -0.193822   
N8       N      0.423760000000     0.140640000000     0.159620000000    -0.19807    
N9       N      0.289440000000     0.108660000000     0.116100000000    -0.0877457  
N10      N      0.398770000000     0.572430000000     0.410640000000    -0.198277   
N11      N      0.433500000000     0.144690000000     0.979080000000    -0.197159   
N12      N      0.308060000000     0.154730000000     0.492670000000    -0.0964146  
N13      N      0.391790000000     0.372640000000     0.411390000000    -0.197959   
N14      N      0.429990000000     0.338230000000     0.979840000000    -0.194592   
N15      N      0.561180000000     0.468100000000     0.496560000000    -0.0926185  
N16      N      0.396130000000     0.378370000000     0.229920000000    -0.198464   
N17      N      0.430880000000     0.340800000000     0.161420000000    -0.196445   
N18      N      0.299030000000     0.213450000000     0.139710000000    -0.0915368  
N19      N      0.202020000000     0.381330000000     0.914750000000    -0.194488   
N20      N      0.630310000000     0.346080000000     0.483630000000    -0.19857    
N21      N      0.664620000000     0.480640000000     0.528700000000    -0.0897575  
N22      N      0.623920000000     0.334290000000     0.663940000000    -0.197621   
N23      N      0.196240000000     0.372300000000     0.732380000000    -0.197527   
N24      N      0.205280000000     0.507400000000     0.746470000000    -0.100992   
N25      N      0.388450000000     0.568790000000     0.728500000000    -0.193824   
N26      N      0.423760000000     0.140640000000     0.659620000000    -0.198059   
N27      N      0.289440000000     0.108660000000     0.616100000000    -0.0876172  
N28      N      0.398770000000     0.572430000000     0.910640000000    -0.198241   
N29      N      0.433500000000     0.144690000000     0.479080000000    -0.197654   
N30      N      0.308060000000     0.154730000000     0.992670000000    -0.0961716  
N31      N      0.391790000000     0.372640000000     0.911390000000    -0.197947   
N32      N      0.429990000000     0.338230000000     0.479840000000    -0.195086   
N33      N      0.561180000000     0.468100000000     0.996560000000    -0.0923142  
N34      N      0.396130000000     0.378370000000     0.729930000000    -0.198524   
N35      N      0.430880000000     0.340800000000     0.661420000000    -0.196426   
N36      N      0.299030000000     0.213450000000     0.639710000000    -0.0914515  
N37      N      0.202020000000     0.881330000000     0.414750000000    -0.194611   
N38      N      0.630310000000     0.846080000000     0.983630000000    -0.198187   
N39      N      0.664620000000     0.980640000000     0.028700000000    -0.089884   
N40      N      0.623920000000     0.834290000000     0.163940000000    -0.197639   
N41      N      0.196240000000     0.872300000000     0.232380000000    -0.197568   
N42      N      0.205280000000     0.007400000000     0.246460000000    -0.100851   
N43      N      0.388450000000     0.068790000000     0.228500000000    -0.193804   
N44      N      0.423760000000     0.640640000000     0.159620000000    -0.198072   
N45      N      0.289440000000     0.608660000000     0.116100000000    -0.0877818  
N46      N      0.398770000000     0.072430000000     0.410640000000    -0.198252   
N47      N      0.433500000000     0.644690000000     0.979080000000    -0.197164   
N48      N      0.308060000000     0.654720000000     0.492670000000    -0.0964511  
N49      N      0.391790000000     0.872640000000     0.411390000000    -0.19799    
N50      N      0.429990000000     0.838230000000     0.979840000000    -0.194601   
N51      N      0.561180000000     0.968100000000     0.496560000000    -0.0926572  
N52      N      0.396130000000     0.878370000000     0.229920000000    -0.198484   
N53      N      0.430880000000     0.840800000000     0.161420000000    -0.19647    
N54      N      0.299030000000     0.713450000000     0.139710000000    -0.0915528  
N55      N      0.202020000000     0.881330000000     0.914750000000    -0.194532   
N56      N      0.630310000000     0.846080000000     0.483630000000    -0.198534   
N57      N      0.664620000000     0.980640000000     0.528700000000    -0.0898007  
N58      N      0.623920000000     0.834290000000     0.663940000000    -0.19764    
N59      N      0.196240000000     0.872300000000     0.732380000000    -0.197566   
N60      N      0.205280000000     0.007400000000     0.746470000000    -0.100828   
N61      N      0.388450000000     0.068790000000     0.728500000000    -0.193806   
N62      N      0.423760000000     0.640640000000     0.659620000000    -0.198061   
N63      N      0.289440000000     0.608660000000     0.616100000000    -0.0876533  
N64      N      0.398770000000     0.072430000000     0.910640000000    -0.198216   
N65      N      0.433500000000     0.644690000000     0.479080000000    -0.197659   
N66      N      0.308060000000     0.654720000000     0.992670000000    -0.096208   
N67      N      0.391790000000     0.872640000000     0.911390000000    -0.197978   
N68      N      0.429990000000     0.838230000000     0.479840000000    -0.195094   
N69      N      0.561180000000     0.968100000000     0.996560000000    -0.0923528  
N70      N      0.396130000000     0.878370000000     0.729930000000    -0.198544   
N71      N      0.430880000000     0.840800000000     0.661420000000    -0.196451   
N72      N      0.299030000000     0.713450000000     0.639710000000    -0.0914675  
N73      N      0.702020000000     0.381330000000     0.414750000000    -0.194546   
N74      N      0.130310000000     0.346080000000     0.983630000000    -0.198209   
N75      N      0.164620000000     0.480640000000     0.028700000000    -0.0899086  
N76      N      0.123920000000     0.334290000000     0.163940000000    -0.197609   
N77      N      0.696240000000     0.372300000000     0.232380000000    -0.197506   
N78      N      0.705280000000     0.507400000000     0.246460000000    -0.100896   
N79      N      0.888450000000     0.568790000000     0.228500000000    -0.193669   
N80      N      0.923760000000     0.140640000000     0.159620000000    -0.198336   
N81      N      0.789440000000     0.108660000000     0.116100000000    -0.0876976  
N82      N      0.898770000000     0.572430000000     0.410640000000    -0.198109   
N83      N      0.933500000000     0.144690000000     0.979080000000    -0.19766    
N84      N      0.808050000000     0.154730000000     0.492670000000    -0.0963434  
N85      N      0.891790000000     0.372640000000     0.411390000000    -0.197829   
N86      N      0.929990000000     0.338230000000     0.979840000000    -0.194747   
N87      N      0.061180000000     0.468100000000     0.496560000000    -0.0925816  
N88      N      0.896140000000     0.378370000000     0.229920000000    -0.198255   
N89      N      0.930880000000     0.340800000000     0.161420000000    -0.196966   
N90      N      0.799030000000     0.213450000000     0.139710000000    -0.0914729  
N91      N      0.702020000000     0.381330000000     0.914750000000    -0.194467   
N92      N      0.130310000000     0.346080000000     0.483630000000    -0.198557   
N93      N      0.164620000000     0.480640000000     0.528700000000    -0.0898252  
N94      N      0.123920000000     0.334290000000     0.663940000000    -0.19761    
N95      N      0.696240000000     0.372300000000     0.732380000000    -0.197504   
N96      N      0.705280000000     0.507400000000     0.746470000000    -0.100874   
N97      N      0.888450000000     0.568790000000     0.728500000000    -0.19367    
N98      N      0.923760000000     0.140640000000     0.659620000000    -0.198325   
N99      N      0.789440000000     0.108660000000     0.616100000000    -0.0875692  
N100     N      0.898770000000     0.572430000000     0.910640000000    -0.198074   
N101     N      0.933500000000     0.144690000000     0.479080000000    -0.198154   
N102     N      0.808050000000     0.154730000000     0.992670000000    -0.0961008  
N103     N      0.891790000000     0.372640000000     0.911390000000    -0.197817   
N104     N      0.929990000000     0.338230000000     0.479840000000    -0.19524    
N105     N      0.061180000000     0.468100000000     0.996560000000    -0.092277   
N106     N      0.896140000000     0.378370000000     0.729930000000    -0.198315   
N107     N      0.930880000000     0.340800000000     0.661420000000    -0.196946   
N108     N      0.799030000000     0.213450000000     0.639710000000    -0.0913877  
N109     N      0.702020000000     0.881330000000     0.414750000000    -0.194589   
N110     N      0.130310000000     0.846080000000     0.983630000000    -0.198175   
N111     N      0.164620000000     0.980640000000     0.028700000000    -0.0899514  
N112     N      0.123920000000     0.834290000000     0.163940000000    -0.197629   
N113     N      0.696240000000     0.872300000000     0.232380000000    -0.197545   
N114     N      0.705280000000     0.007400000000     0.246460000000    -0.10073    
N115     N      0.888450000000     0.068790000000     0.228500000000    -0.193656   
N116     N      0.923760000000     0.640640000000     0.159620000000    -0.198359   
N117     N      0.789430000000     0.608660000000     0.116100000000    -0.0877137  
N118     N      0.898770000000     0.072430000000     0.410640000000    -0.198056   
N119     N      0.933500000000     0.644690000000     0.979080000000    -0.19769    
N120     N      0.808050000000     0.654720000000     0.492670000000    -0.096374   
N121     N      0.891790000000     0.872640000000     0.411390000000    -0.197827   
N122     N      0.929990000000     0.838230000000     0.979840000000    -0.194723   
N123     N      0.061180000000     0.968100000000     0.496560000000    -0.0926196  
N124     N      0.896130000000     0.878370000000     0.229920000000    -0.19831    
N125     N      0.930880000000     0.840800000000     0.161420000000    -0.196986   
N126     N      0.799030000000     0.713450000000     0.139710000000    -0.0914838  
N127     N      0.702020000000     0.881330000000     0.914750000000    -0.19451    
N128     N      0.130310000000     0.846080000000     0.483630000000    -0.198522   
N129     N      0.164620000000     0.980640000000     0.528700000000    -0.0898681  
N130     N      0.123920000000     0.834290000000     0.663940000000    -0.19763    
N131     N      0.696240000000     0.872300000000     0.732380000000    -0.197543   
N132     N      0.705280000000     0.007400000000     0.746470000000    -0.100707   
N133     N      0.888450000000     0.068790000000     0.728500000000    -0.193657   
N134     N      0.923760000000     0.640640000000     0.659620000000    -0.198349   
N135     N      0.789430000000     0.608660000000     0.616100000000    -0.0875853  
N136     N      0.898770000000     0.072430000000     0.910640000000    -0.198021   
N137     N      0.933500000000     0.644690000000     0.479080000000    -0.198185   
N138     N      0.808050000000     0.654720000000     0.992670000000    -0.0961315  
N139     N      0.891790000000     0.872640000000     0.911390000000    -0.197815   
N140     N      0.929990000000     0.838230000000     0.479840000000    -0.195216   
N141     N      0.061180000000     0.968100000000     0.996560000000    -0.0923151  
N142     N      0.896130000000     0.878370000000     0.729930000000    -0.19837    
N143     N      0.930880000000     0.840800000000     0.661420000000    -0.196966   
N144     N      0.799030000000     0.713450000000     0.639710000000    -0.0913986  
O1       O      0.405850000000     0.425560000000     0.352580000000    -0.498304   
O2       O      0.321200000000     0.503520000000     0.269630000000    -0.498165   
O3       O      0.322970000000     0.369010000000     0.371910000000    -0.505656   
O4       O      0.343170000000     0.363750000000     0.288680000000    -0.498504   
O5       O      0.400920000000     0.506030000000     0.371690000000    -0.508231   
O6       O      0.235670000000     0.424330000000     0.291980000000    -0.493391   
O7       O      0.329190000000     0.440650000000     0.321290000000    -0.872023   
O8       O      0.267330000000     0.448650000000     0.373800000000    -0.502186   
O9       O      0.237450000000     0.365160000000     0.354300000000    -0.491573   
O10      O      0.399900000000     0.446910000000     0.269810000000    -0.508531   
O11      O      0.263200000000     0.369870000000     0.270590000000    -0.504981   
O12      O      0.346150000000     0.533990000000     0.351700000000    -0.49907    
O13      O      0.404620000000     0.532620000000     0.288470000000    -0.492611   
O14      O      0.586810000000     0.349800000000     0.104980000000    -0.499972   
O15      O      0.427060000000     0.268820000000     0.018760000000    -0.498809   
O16      O      0.560340000000     0.266290000000     0.122480000000    -0.505548   
O17      O      0.587970000000     0.289040000000     0.039620000000    -0.497882   
O18      O      0.500480000000     0.343130000000     0.123440000000    -0.503923   
O19      O      0.419680000000     0.182010000000     0.039110000000    -0.495683   
O20      O      0.496100000000     0.273970000000     0.071290000000    -0.874712   
O21      O      0.423200000000     0.208470000000     0.121160000000    -0.495683   
O22      O      0.479670000000     0.181500000000     0.102740000000    -0.494689   
O23      O      0.563040000000     0.347400000000     0.022110000000    -0.497031   
O24      O      0.502210000000     0.209550000000     0.019500000000    -0.50432    
O25      O      0.418770000000     0.289890000000     0.101150000000    -0.491784   
O26      O      0.481170000000     0.351180000000     0.040090000000    -0.488938   
O27      O      0.405850000000     0.425560000000     0.852580000000    -0.498228   
O28      O      0.321200000000     0.503520000000     0.769630000000    -0.498171   
O29      O      0.322970000000     0.369010000000     0.871910000000    -0.505623   
O30      O      0.343170000000     0.363750000000     0.788680000000    -0.498543   
O31      O      0.400920000000     0.506030000000     0.871690000000    -0.508039   
O32      O      0.235670000000     0.424330000000     0.791980000000    -0.493396   
O33      O      0.329190000000     0.440650000000     0.821290000000    -0.872032   
O34      O      0.267330000000     0.448650000000     0.873800000000    -0.50217    
O35      O      0.237450000000     0.365160000000     0.854300000000    -0.491566   
O36      O      0.399900000000     0.446910000000     0.769810000000    -0.508674   
O37      O      0.263200000000     0.369870000000     0.770590000000    -0.504978   
O38      O      0.346150000000     0.533990000000     0.851690000000    -0.499008   
O39      O      0.404620000000     0.532620000000     0.788470000000    -0.492669   
O40      O      0.586810000000     0.349800000000     0.604980000000    -0.499969   
O41      O      0.427060000000     0.268820000000     0.518760000000    -0.498703   
O42      O      0.560340000000     0.266290000000     0.622480000000    -0.505556   
O43      O      0.587970000000     0.289040000000     0.539620000000    -0.497846   
O44      O      0.500480000000     0.343130000000     0.623440000000    -0.50393    
O45      O      0.419680000000     0.182010000000     0.539110000000    -0.495655   
O46      O      0.496100000000     0.273970000000     0.571290000000    -0.874825   
O47      O      0.423200000000     0.208470000000     0.621160000000    -0.495702   
O48      O      0.479670000000     0.181500000000     0.602740000000    -0.494648   
O49      O      0.563040000000     0.347400000000     0.522110000000    -0.496993   
O50      O      0.502210000000     0.209550000000     0.519500000000    -0.504228   
O51      O      0.418770000000     0.289890000000     0.601150000000    -0.491747   
O52      O      0.481170000000     0.351180000000     0.540090000000    -0.488904   
O53      O      0.405850000000     0.925560000000     0.352580000000    -0.498351   
O54      O      0.321200000000     0.003520000000     0.269630000000    -0.498008   
O55      O      0.322980000000     0.869010000000     0.371910000000    -0.505731   
O56      O      0.343170000000     0.863750000000     0.288680000000    -0.498476   
O57      O      0.400920000000     0.006030000000     0.371690000000    -0.508044   
O58      O      0.235670000000     0.924320000000     0.291980000000    -0.493482   
O59      O      0.329190000000     0.940660000000     0.321290000000    -0.871962   
O60      O      0.267330000000     0.948640000000     0.373800000000    -0.502319   
O61      O      0.237450000000     0.865160000000     0.354300000000    -0.491588   
O62      O      0.399900000000     0.946910000000     0.269810000000    -0.508547   
O63      O      0.263200000000     0.869870000000     0.270590000000    -0.504999   
O64      O      0.346150000000     0.033990000000     0.351700000000    -0.498949   
O65      O      0.404620000000     0.032620000000     0.288470000000    -0.492464   
O66      O      0.586810000000     0.849800000000     0.104980000000    -0.499983   
O67      O      0.427060000000     0.768820000000     0.018760000000    -0.498829   
O68      O      0.560340000000     0.766290000000     0.122480000000    -0.505549   
O69      O      0.587970000000     0.789030000000     0.039620000000    -0.497795   
O70      O      0.500480000000     0.843130000000     0.123440000000    -0.503798   
O71      O      0.419680000000     0.682010000000     0.039110000000    -0.495592   
O72      O      0.496100000000     0.773970000000     0.071290000000    -0.874554   
O73      O      0.423200000000     0.708470000000     0.121160000000    -0.49564    
O74      O      0.479670000000     0.681500000000     0.102740000000    -0.494691   
O75      O      0.563040000000     0.847400000000     0.022110000000    -0.496977   
O76      O      0.502210000000     0.709550000000     0.019500000000    -0.504277   
O77      O      0.418770000000     0.789880000000     0.101150000000    -0.491897   
O78      O      0.481170000000     0.851180000000     0.040090000000    -0.488941   
O79      O      0.405850000000     0.925560000000     0.852580000000    -0.498275   
O80      O      0.321200000000     0.003520000000     0.769630000000    -0.498014   
O81      O      0.322980000000     0.869010000000     0.871910000000    -0.505697   
O82      O      0.343170000000     0.863750000000     0.788680000000    -0.498515   
O83      O      0.400920000000     0.006030000000     0.871690000000    -0.507851   
O84      O      0.235670000000     0.924320000000     0.791980000000    -0.493487   
O85      O      0.329190000000     0.940660000000     0.821290000000    -0.871971   
O86      O      0.267330000000     0.948640000000     0.873800000000    -0.502303   
O87      O      0.237450000000     0.865160000000     0.854300000000    -0.491581   
O88      O      0.399900000000     0.946910000000     0.769810000000    -0.50869    
O89      O      0.263200000000     0.869870000000     0.770590000000    -0.504996   
O90      O      0.346150000000     0.033990000000     0.851690000000    -0.498887   
O91      O      0.404620000000     0.032620000000     0.788470000000    -0.492521   
O92      O      0.586810000000     0.849800000000     0.604980000000    -0.499981   
O93      O      0.427060000000     0.768820000000     0.518760000000    -0.498723   
O94      O      0.560340000000     0.766290000000     0.622480000000    -0.505557   
O95      O      0.587970000000     0.789030000000     0.539620000000    -0.497759   
O96      O      0.500480000000     0.843130000000     0.623440000000    -0.503805   
O97      O      0.419680000000     0.682010000000     0.539110000000    -0.495564   
O98      O      0.496100000000     0.773970000000     0.571290000000    -0.874667   
O99      O      0.423200000000     0.708470000000     0.621160000000    -0.495659   
O100     O      0.479670000000     0.681500000000     0.602740000000    -0.49465    
O101     O      0.563040000000     0.847400000000     0.522110000000    -0.496939   
O102     O      0.502210000000     0.709550000000     0.519500000000    -0.504185   
O103     O      0.418770000000     0.789880000000     0.601150000000    -0.491861   
O104     O      0.481170000000     0.851180000000     0.540090000000    -0.488907   
O105     O      0.905850000000     0.425560000000     0.352580000000    -0.498177   
O106     O      0.821200000000     0.503520000000     0.269630000000    -0.498157   
O107     O      0.822970000000     0.369010000000     0.371910000000    -0.505641   
O108     O      0.843170000000     0.363750000000     0.288680000000    -0.498444   
O109     O      0.900920000000     0.506030000000     0.371690000000    -0.50815    
O110     O      0.735670000000     0.424330000000     0.291980000000    -0.49334    
O111     O      0.829190000000     0.440650000000     0.321290000000    -0.872081   
O112     O      0.767330000000     0.448650000000     0.373800000000    -0.502173   
O113     O      0.737450000000     0.365160000000     0.354300000000    -0.491517   
O114     O      0.899900000000     0.446910000000     0.269810000000    -0.508433   
O115     O      0.763200000000     0.369870000000     0.270590000000    -0.504969   
O116     O      0.846150000000     0.533990000000     0.351700000000    -0.499026   
O117     O      0.904620000000     0.532620000000     0.288470000000    -0.492493   
O118     O      0.086810000000     0.349800000000     0.104980000000    -0.499659   
O119     O      0.927060000000     0.268820000000     0.018760000000    -0.498612   
O120     O      0.060340000000     0.266290000000     0.122480000000    -0.505644   
O121     O      0.087970000000     0.289040000000     0.039620000000    -0.497583   
O122     O      0.000480000000     0.343130000000     0.123440000000    -0.505354   
O123     O      0.919680000000     0.182010000000     0.039110000000    -0.496028   
O124     O      0.996100000000     0.273970000000     0.071290000000    -0.872755   
O125     O      0.923200000000     0.208470000000     0.121160000000    -0.49553    
O126     O      0.979660000000     0.181500000000     0.102740000000    -0.493622   
O127     O      0.063040000000     0.347400000000     0.022110000000    -0.497103   
O128     O      0.002210000000     0.209550000000     0.019500000000    -0.505746   
O129     O      0.918770000000     0.289890000000     0.101150000000    -0.492128   
O130     O      0.981170000000     0.351180000000     0.040090000000    -0.487734   
O131     O      0.905850000000     0.425560000000     0.852580000000    -0.498101   
O132     O      0.821200000000     0.503520000000     0.769630000000    -0.498164   
O133     O      0.822970000000     0.369010000000     0.871910000000    -0.505607   
O134     O      0.843170000000     0.363750000000     0.788680000000    -0.498482   
O135     O      0.900920000000     0.506030000000     0.871690000000    -0.507957   
O136     O      0.735670000000     0.424330000000     0.791980000000    -0.493345   
O137     O      0.829190000000     0.440650000000     0.821290000000    -0.87209    
O138     O      0.767330000000     0.448650000000     0.873800000000    -0.502156   
O139     O      0.737450000000     0.365160000000     0.854300000000    -0.49151    
O140     O      0.899900000000     0.446910000000     0.769810000000    -0.508576   
O141     O      0.763200000000     0.369870000000     0.770590000000    -0.504966   
O142     O      0.846150000000     0.533990000000     0.851690000000    -0.498964   
O143     O      0.904620000000     0.532620000000     0.788470000000    -0.49255    
O144     O      0.086810000000     0.349800000000     0.604980000000    -0.499657   
O145     O      0.927060000000     0.268820000000     0.518760000000    -0.498506   
O146     O      0.060340000000     0.266290000000     0.622480000000    -0.505652   
O147     O      0.087970000000     0.289040000000     0.539620000000    -0.497547   
O148     O      0.000480000000     0.343130000000     0.623440000000    -0.50536    
O149     O      0.919680000000     0.182010000000     0.539110000000    -0.495999   
O150     O      0.996100000000     0.273970000000     0.571290000000    -0.872868   
O151     O      0.923200000000     0.208470000000     0.621160000000    -0.495549   
O152     O      0.979660000000     0.181500000000     0.602740000000    -0.493581   
O153     O      0.063040000000     0.347400000000     0.522110000000    -0.497065   
O154     O      0.002210000000     0.209550000000     0.519500000000    -0.505655   
O155     O      0.918770000000     0.289890000000     0.601150000000    -0.492091   
O156     O      0.981170000000     0.351180000000     0.540090000000    -0.4877     
O157     O      0.905850000000     0.925560000000     0.352580000000    -0.498166   
O158     O      0.821200000000     0.003520000000     0.269630000000    -0.497998   
O159     O      0.822970000000     0.869010000000     0.371910000000    -0.505625   
O160     O      0.843170000000     0.863750000000     0.288680000000    -0.498438   
O161     O      0.900930000000     0.006030000000     0.371690000000    -0.507855   
O162     O      0.735670000000     0.924320000000     0.291980000000    -0.493429   
O163     O      0.829190000000     0.940660000000     0.321290000000    -0.872025   
O164     O      0.767330000000     0.948640000000     0.373800000000    -0.502305   
O165     O      0.737450000000     0.865160000000     0.354300000000    -0.491528   
O166     O      0.899900000000     0.946910000000     0.269810000000    -0.508461   
O167     O      0.763200000000     0.869870000000     0.270590000000    -0.50499    
O168     O      0.846150000000     0.033990000000     0.351700000000    -0.498858   
O169     O      0.904620000000     0.032620000000     0.288470000000    -0.492342   
O170     O      0.086810000000     0.849800000000     0.104980000000    -0.499676   
O171     O      0.927060000000     0.768820000000     0.018760000000    -0.498646   
O172     O      0.060340000000     0.766290000000     0.122480000000    -0.50565    
O173     O      0.087970000000     0.789030000000     0.039620000000    -0.497502   
O174     O      0.000480000000     0.843130000000     0.123440000000    -0.505227   
O175     O      0.919680000000     0.682010000000     0.039110000000    -0.49599    
O176     O      0.996100000000     0.773970000000     0.071290000000    -0.872763   
O177     O      0.923200000000     0.708470000000     0.121160000000    -0.495449   
O178     O      0.979660000000     0.681500000000     0.102740000000    -0.49372    
O179     O      0.063040000000     0.847400000000     0.022110000000    -0.497062   
O180     O      0.002210000000     0.709550000000     0.019500000000    -0.505719   
O181     O      0.918770000000     0.789880000000     0.101150000000    -0.492183   
O182     O      0.981170000000     0.851180000000     0.040090000000    -0.487797   
O183     O      0.905850000000     0.925560000000     0.852580000000    -0.49809    
O184     O      0.821200000000     0.003520000000     0.769630000000    -0.498005   
O185     O      0.822970000000     0.869010000000     0.871910000000    -0.505591   
O186     O      0.843170000000     0.863750000000     0.788680000000    -0.498477   
O187     O      0.900930000000     0.006030000000     0.871690000000    -0.507663   
O188     O      0.735670000000     0.924320000000     0.791980000000    -0.493434   
O189     O      0.829190000000     0.940660000000     0.821290000000    -0.872034   
O190     O      0.767330000000     0.948640000000     0.873800000000    -0.502288   
O191     O      0.737450000000     0.865160000000     0.854300000000    -0.491521   
O192     O      0.899900000000     0.946910000000     0.769810000000    -0.508605   
O193     O      0.763200000000     0.869870000000     0.770590000000    -0.504988   
O194     O      0.846150000000     0.033990000000     0.851690000000    -0.498797   
O195     O      0.904620000000     0.032620000000     0.788470000000    -0.492399   
O196     O      0.086810000000     0.849800000000     0.604980000000    -0.499674   
O197     O      0.927060000000     0.768820000000     0.518760000000    -0.49854    
O198     O      0.060340000000     0.766290000000     0.622480000000    -0.505658   
O199     O      0.087970000000     0.789030000000     0.539620000000    -0.497466   
O200     O      0.000480000000     0.843130000000     0.623440000000    -0.505234   
O201     O      0.919680000000     0.682010000000     0.539110000000    -0.495962   
O202     O      0.996100000000     0.773970000000     0.571290000000    -0.872876   
O203     O      0.923200000000     0.708470000000     0.621160000000    -0.495468   
O204     O      0.979660000000     0.681500000000     0.602740000000    -0.493679   
O205     O      0.063040000000     0.847400000000     0.522110000000    -0.497023   
O206     O      0.002210000000     0.709550000000     0.519500000000    -0.505628   
O207     O      0.918770000000     0.789880000000     0.601150000000    -0.492147   
O208     O      0.981170000000     0.851180000000     0.540090000000    -0.487762   


