data_structure

_audit_creation_method RASPA-1.0
_audit_creation_date 2023-5-23
_audit_author_name 'Poobodin Mano'

_cell_length_a    37.4676
_cell_length_b    37.4677
_cell_length_c    37.4678
_cell_angle_alpha 90.104
_cell_angle_beta  90.0002
_cell_angle_gamma 89.9577
_cell_volume      52598.1

_symmetry_cell_setting          triclinic
_symmetry_space_group_name_Hall 'P 1'
_symmetry_space_group_name_H-M  'P 1'
_symmetry_Int_Tables_number     1

_symmetry_equiv_pos_as_xyz 'x,y,z'

loop_
_atom_site_label
_atom_site_type_symbol
_atom_site_fract_x
_atom_site_fract_y
_atom_site_fract_z
_atom_site_charge
C1       C      0.229700000000     0.580200000000     0.297700000000     0.522627   
C2       C      0.295480000000     0.582840000000     0.227630000000     0.526547   
C3       C      0.230900000000     0.525130000000     0.162510000000     0.526423   
C4       C      0.227910000000     0.473120000000     0.295070000000     0.526912   
C5       C      0.298000000000     0.475770000000     0.229310000000     0.522517   
C6       C      0.162860000000     0.530840000000     0.230550000000     0.526526   
C7       C      0.765780000000     0.580030000000     0.229490000000     0.522295   
C8       C      0.835880000000     0.582550000000     0.295270000000     0.526732   
C9       C      0.900860000000     0.524840000000     0.230470000000     0.526667   
C10      C      0.768200000000     0.472940000000     0.227360000000     0.526669   
C11      C      0.833980000000     0.475490000000     0.297440000000     0.522364   
C12      C      0.832830000000     0.530670000000     0.162480000000     0.526619   
C13      C      0.584060000000     0.830020000000     0.297800000000     0.522406   
C14      C      0.586630000000     0.764180000000     0.227650000000     0.526839   
C15      C      0.528900000000     0.828850000000     0.162720000000     0.526763   
C16      C      0.476970000000     0.832000000000     0.295410000000     0.52703    
C17      C      0.479550000000     0.761860000000     0.229580000000     0.522118   
C18      C      0.534690000000     0.896910000000     0.230780000000     0.526641   
C19      C      0.479660000000     0.225940000000     0.297300000000     0.522246   
C20      C      0.477150000000     0.291670000000     0.227270000000     0.526817   
C21      C      0.534860000000     0.226880000000     0.162260000000     0.526415   
C22      C      0.586730000000     0.223880000000     0.294960000000     0.52685    
C23      C      0.584210000000     0.293910000000     0.229240000000     0.522312   
C24      C      0.528990000000     0.158920000000     0.230250000000     0.526734   
C25      C      0.584200000000     0.226000000000     0.765160000000     0.522227   
C26      C      0.586840000000     0.291840000000     0.835290000000     0.526853   
C27      C      0.529090000000     0.227290000000     0.900250000000     0.526615   
C28      C      0.477120000000     0.224210000000     0.767580000000     0.526806   
C29      C      0.479750000000     0.294350000000     0.833420000000     0.522068   
C30      C      0.534840000000     0.159210000000     0.832200000000     0.526655   
C31      C      0.833990000000     0.294110000000     0.583450000000     0.52245    
C32      C      0.768260000000     0.224020000000     0.586050000000     0.526658   
C33      C      0.832950000000     0.158940000000     0.528350000000     0.526614   
C34      C      0.835870000000     0.291510000000     0.476370000000     0.526749   
C35      C      0.765840000000     0.225750000000     0.478990000000     0.522264   
C36      C      0.900930000000     0.226990000000     0.534090000000     0.526465   
C37      C      0.297990000000     0.226190000000     0.583530000000     0.522394   
C38      C      0.227870000000     0.292000000000     0.586060000000     0.526476   
C39      C      0.162940000000     0.227190000000     0.528330000000     0.526676   
C40      C      0.295640000000     0.224070000000     0.476440000000     0.526682   
C41      C      0.229830000000     0.294150000000     0.479000000000     0.522207   
C42      C      0.230990000000     0.159190000000     0.534200000000     0.52673    
C43      C      0.229870000000     0.476130000000     0.765360000000     0.522321   
C44      C      0.295650000000     0.473540000000     0.835450000000     0.526615   
C45      C      0.230920000000     0.531250000000     0.900530000000     0.526659   
C46      C      0.227920000000     0.583220000000     0.767950000000     0.526706   
C47      C      0.297980000000     0.580600000000     0.833740000000     0.522029   
C48      C      0.162930000000     0.525470000000     0.832470000000     0.526526   
C49      C      0.297870000000     0.830110000000     0.479470000000     0.522478   
C50      C      0.227790000000     0.764360000000     0.476980000000     0.526589   
C51      C      0.162850000000     0.829190000000     0.534710000000     0.526743   
C52      C      0.295570000000     0.832250000000     0.586560000000     0.526699   
C53      C      0.229800000000     0.762210000000     0.584040000000     0.522248   
C54      C      0.230860000000     0.897160000000     0.528820000000     0.526521   
C55      C      0.833970000000     0.761780000000     0.479490000000     0.522346   
C56      C      0.768180000000     0.831900000000     0.476870000000     0.526604   
C57      C      0.832810000000     0.896960000000     0.534580000000     0.526511   
C58      C      0.835830000000     0.764390000000     0.586580000000     0.526866   
C59      C      0.765730000000     0.830180000000     0.583940000000     0.522248   
C60      C      0.900840000000     0.828890000000     0.528870000000     0.526531   
C61      C      0.479590000000     0.830280000000     0.765660000000     0.522231   
C62      C      0.477030000000     0.764570000000     0.835700000000     0.526956   
C63      C      0.534750000000     0.829240000000     0.900720000000     0.526473   
C64      C      0.586660000000     0.832140000000     0.768030000000     0.526856   
C65      C      0.584100000000     0.762120000000     0.833760000000     0.522187   
C66      C      0.528940000000     0.897210000000     0.832730000000     0.526909   
C67      C      0.833940000000     0.580430000000     0.765510000000     0.52197    
C68      C      0.768160000000     0.582930000000     0.835600000000     0.526877   
C69      C      0.832900000000     0.525180000000     0.900440000000     0.526777   
C70      C      0.835990000000     0.473360000000     0.767630000000     0.52677    
C71      C      0.765910000000     0.475850000000     0.833420000000     0.522168   
C72      C      0.900910000000     0.531080000000     0.832450000000     0.526394   
C73      C      0.664340000000     0.714380000000     0.862400000000    -0.0893174  
C74      C      0.654240000000     0.678870000000     0.856930000000     0.035496   
C75      C      0.618660000000     0.671710000000     0.847620000000    -0.0889143  
C76      C      0.594940000000     0.699840000000     0.841380000000     0.0756389  
C77      C      0.639980000000     0.741800000000     0.855920000000     0.0775854  
C78      C      0.681790000000     0.650350000000     0.855500000000     0.0361782  
C79      C      0.681500000000     0.626310000000     0.826960000000    -0.0907455  
C80      C      0.710120000000     0.603330000000     0.821730000000     0.0797059  
C81      C      0.738760000000     0.625110000000     0.873800000000     0.0758647  
C82      C      0.710510000000     0.649090000000     0.879600000000    -0.0887232  
C83      C      0.827130000000     0.677830000000     0.629930000000    -0.0907151  
C84      C      0.855630000000     0.678140000000     0.653950000000     0.0362118  
C85      C      0.879710000000     0.706870000000     0.652740000000    -0.0887981  
C86      C      0.873940000000     0.735070000000     0.628780000000     0.0759312  
C87      C      0.821920000000     0.706410000000     0.606970000000     0.0796332  
C88      C      0.857050000000     0.650600000000     0.682420000000     0.0354493  
C89      C      0.862470000000     0.660710000000     0.717950000000    -0.0892603  
C90      C      0.856010000000     0.636340000000     0.745320000000     0.0774903  
C91      C      0.841580000000     0.591280000000     0.703250000000     0.0756119  
C92      C      0.847800000000     0.615010000000     0.675180000000    -0.08886    
C93      C      0.675310000000     0.843960000000     0.618540000000    -0.0888673  
C94      C      0.682470000000     0.853340000000     0.654120000000     0.0354732  
C95      C      0.717970000000     0.858890000000     0.664200000000    -0.0892965  
C96      C      0.745390000000     0.852420000000     0.639830000000     0.0776075  
C97      C      0.703430000000     0.837740000000     0.594800000000     0.0755585  
C98      C      0.653990000000     0.851910000000     0.681690000000     0.0361848  
C99      C      0.652680000000     0.876050000000     0.710420000000    -0.0887501  
C100     C      0.628740000000     0.870280000000     0.738660000000     0.075885   
C101     C      0.607100000000     0.818150000000     0.710010000000     0.0796905  
C102     C      0.630050000000     0.823350000000     0.681400000000    -0.0907066  
C103     C      0.070730000000     0.834540000000     0.502580000000    -0.0901179  
C104     C      0.051660000000     0.821820000000     0.532000000000     0.0360283  
C105     C      0.070720000000     0.810730000000     0.562210000000    -0.0889829  
C106     C      0.107990000000     0.812900000000     0.562620000000     0.076178   
C107     C      0.107850000000     0.836670000000     0.504010000000     0.0782767  
C108     C      0.012050000000     0.821760000000     0.531600000000     0.0357453  
C109     C      0.993040000000     0.810490000000     0.501400000000    -0.0887164  
C110     C      0.955760000000     0.812570000000     0.500980000000     0.0760203  
C111     C      0.955800000000     0.836570000000     0.559590000000     0.078213   
C112     C      0.992930000000     0.834550000000     0.561020000000    -0.0898847  
C113     C      0.353180000000     0.876190000000     0.652710000000    -0.0887302  
C114     C      0.381910000000     0.852070000000     0.653950000000     0.0361637  
C115     C      0.382210000000     0.823540000000     0.629900000000    -0.0907192  
C116     C      0.353600000000     0.818330000000     0.606930000000     0.079697   
C117     C      0.324950000000     0.870420000000     0.628740000000     0.0758397  
C118     C      0.409460000000     0.853480000000     0.682460000000     0.0354933  
C119     C      0.445040000000     0.844140000000     0.675280000000    -0.088862   
C120     C      0.468760000000     0.837890000000     0.703390000000     0.0756119  
C121     C      0.423710000000     0.852460000000     0.745380000000     0.0776135  
C122     C      0.399350000000     0.858960000000     0.717970000000    -0.0893202  
C123     C      0.993030000000     0.558680000000     0.814130000000    -0.0887424  
C124     C      0.012120000000     0.528480000000     0.825240000000     0.035731   
C125     C      0.993070000000     0.499030000000     0.837920000000    -0.0898677  
C126     C      0.955940000000     0.500420000000     0.839980000000     0.0781696  
C127     C      0.955760000000     0.559050000000     0.816240000000     0.0760586  
C128     C      0.051730000000     0.528120000000     0.825240000000     0.0360079  
C129     C      0.070780000000     0.557550000000     0.838050000000    -0.0900724  
C130     C      0.107910000000     0.556150000000     0.840120000000     0.078291   
C131     C      0.108080000000     0.497550000000     0.816110000000     0.0761349  
C132     C      0.070810000000     0.497930000000     0.813990000000    -0.088942   
C133     C      0.345680000000     0.660850000000     0.862440000000    -0.089435   
C134     C      0.381190000000     0.650740000000     0.856920000000     0.0355336  
C135     C      0.388370000000     0.615150000000     0.847580000000    -0.0889112  
C136     C      0.360260000000     0.591430000000     0.841340000000     0.0756361  
C137     C      0.318280000000     0.636480000000     0.855960000000     0.0777122  
C138     C      0.409680000000     0.678290000000     0.855490000000     0.0361762  
C139     C      0.410950000000     0.707030000000     0.879620000000    -0.0886864  
C140     C      0.434910000000     0.735250000000     0.873850000000     0.0757769  
C141     C      0.456600000000     0.706550000000     0.821740000000     0.0797047  
C142     C      0.433650000000     0.677960000000     0.826950000000    -0.0907316  
C143     C      0.184030000000     0.649400000000     0.710450000000    -0.0887252  
C144     C      0.208130000000     0.650630000000     0.681730000000     0.0361714  
C145     C      0.236640000000     0.626600000000     0.681400000000    -0.0906893  
C146     C      0.241850000000     0.603630000000     0.709970000000     0.0796309  
C147     C      0.189800000000     0.625430000000     0.738650000000     0.075852   
C148     C      0.206700000000     0.679110000000     0.654190000000     0.0355159  
C149     C      0.215970000000     0.671870000000     0.618600000000    -0.0889013  
C150     C      0.222180000000     0.699950000000     0.594880000000     0.0756181  
C151     C      0.207710000000     0.742000000000     0.639950000000     0.0776107  
C152     C      0.201250000000     0.714630000000     0.664310000000    -0.0893615  
C153     C      0.225400000000     0.066980000000     0.502230000000    -0.0900719  
C154     C      0.238120000000     0.047970000000     0.531690000000     0.0360028  
C155     C      0.249300000000     0.067100000000     0.561870000000    -0.0889254  
C156     C      0.247220000000     0.104380000000     0.562210000000     0.0760986  
C157     C      0.223370000000     0.104120000000     0.503580000000     0.0782658  
C158     C      0.238100000000     0.008360000000     0.531360000000     0.0357226  
C159     C      0.249270000000     0.989210000000     0.501190000000    -0.0887001  
C160     C      0.247150000000     0.951940000000     0.500840000000     0.0760458  
C161     C      0.223270000000     0.952240000000     0.559450000000     0.0781793  
C162     C      0.225340000000     0.989380000000     0.560820000000    -0.0898224  
C163     C      0.183940000000     0.349730000000     0.652200000000    -0.0887235  
C164     C      0.208040000000     0.378440000000     0.653470000000     0.0361927  
C165     C      0.236550000000     0.378690000000     0.629460000000    -0.0907526  
C166     C      0.241760000000     0.350050000000     0.606470000000     0.0796542  
C167     C      0.189710000000     0.321460000000     0.628210000000     0.0758261  
C168     C      0.206650000000     0.406000000000     0.682020000000     0.0354993  
C169     C      0.201190000000     0.395920000000     0.717510000000    -0.0893414  
C170     C      0.207690000000     0.420280000000     0.744960000000     0.0776226  
C171     C      0.222230000000     0.465290000000     0.703060000000     0.0756953  
C172     C      0.215970000000     0.441570000000     0.674900000000    -0.0888967  
C173     C      0.814420000000     0.066720000000     0.501010000000    -0.0890176  
C174     C      0.825580000000     0.047770000000     0.531250000000     0.0360339  
C175     C      0.838380000000     0.066940000000     0.560630000000    -0.0901165  
C176     C      0.840490000000     0.104060000000     0.559140000000     0.0783116  
C177     C      0.816590000000     0.103980000000     0.500540000000     0.0762096  
C178     C      0.825560000000     0.008150000000     0.531700000000     0.0357642  
C179     C      0.814380000000     0.989230000000     0.561940000000    -0.0887043  
C180     C      0.816500000000     0.951950000000     0.562410000000     0.0759986  
C181     C      0.840390000000     0.951830000000     0.503800000000     0.0782315  
C182     C      0.838320000000     0.988960000000     0.502320000000    -0.0898694  
C183     C      0.993040000000     0.221470000000     0.501950000000    -0.0898879  
C184     C      0.012110000000     0.234320000000     0.531360000000     0.0357986  
C185     C      0.993060000000     0.245560000000     0.561560000000    -0.0888148  
C186     C      0.955790000000     0.243410000000     0.561970000000     0.0761717  
C187     C      0.955910000000     0.219370000000     0.503380000000     0.0781504  
C188     C      0.051720000000     0.234340000000     0.530980000000     0.0359567  
C189     C      0.070760000000     0.245450000000     0.500770000000    -0.0888713  
C190     C      0.108030000000     0.243370000000     0.500380000000     0.0760394  
C191     C      0.107960000000     0.219640000000     0.559010000000     0.0783261  
C192     C      0.070820000000     0.221680000000     0.560420000000    -0.0900871  
C193     C      0.847870000000     0.384560000000     0.618030000000    -0.0888651  
C194     C      0.857230000000     0.377430000000     0.653600000000     0.0354984  
C195     C      0.862710000000     0.341940000000     0.663670000000    -0.0893583  
C196     C      0.856210000000     0.314500000000     0.639310000000     0.0776675  
C197     C      0.841610000000     0.356410000000     0.594300000000     0.0756128  
C198     C      0.855820000000     0.405970000000     0.681170000000     0.0361897  
C199     C      0.827300000000     0.429990000000     0.680920000000    -0.0907352  
C200     C      0.822090000000     0.452960000000     0.709570000000     0.0797069  
C201     C      0.874170000000     0.431220000000     0.738150000000     0.0758966  
C202     C      0.879950000000     0.407250000000     0.709880000000    -0.088784   
C203     C      0.502700000000     0.067150000000     0.837860000000    -0.0901013  
C204     C      0.532130000000     0.047990000000     0.825160000000     0.0360112  
C205     C      0.562350000000     0.066960000000     0.813960000000    -0.0889979  
C206     C      0.562750000000     0.104240000000     0.816010000000     0.0762227  
C207     C      0.504130000000     0.104290000000     0.839850000000     0.0782609  
C208     C      0.531730000000     0.008380000000     0.825250000000     0.0357595  
C209     C      0.501510000000     0.989330000000     0.814100000000    -0.0887831  
C210     C      0.501080000000     0.952080000000     0.816310000000     0.0761204  
C211     C      0.559670000000     0.952180000000     0.840240000000     0.0782272  
C212     C      0.561120000000     0.989300000000     0.838080000000    -0.0898946  
C213     C      0.445160000000     0.384800000000     0.847290000000    -0.0888998  
C214     C      0.409590000000     0.377650000000     0.856620000000     0.035511   
C215     C      0.399510000000     0.342160000000     0.862100000000    -0.0893517  
C216     C      0.423880000000     0.314730000000     0.855610000000     0.0776142  
C217     C      0.468900000000     0.356660000000     0.841050000000     0.0755938  
C218     C      0.382020000000     0.406160000000     0.855210000000     0.0362174  
C219     C      0.353310000000     0.407470000000     0.879330000000    -0.0887885  
C220     C      0.325060000000     0.431430000000     0.873560000000     0.0759237  
C221     C      0.353670000000     0.453090000000     0.821510000000     0.0797147  
C222     C      0.382290000000     0.430120000000     0.826700000000    -0.0907795  
C223     C      0.410940000000     0.180340000000     0.709940000000    -0.0887416  
C224     C      0.409700000000     0.204420000000     0.681240000000     0.0361958  
C225     C      0.433730000000     0.232890000000     0.680970000000    -0.0907253  
C226     C      0.456710000000     0.238090000000     0.709580000000     0.0797593  
C227     C      0.434930000000     0.186100000000     0.738180000000     0.0758147  
C228     C      0.381200000000     0.203020000000     0.653680000000     0.0355014  
C229     C      0.345680000000     0.197620000000     0.663780000000    -0.0893679  
C230     C      0.318280000000     0.204110000000     0.639410000000     0.0776316  
C231     C      0.360270000000     0.218510000000     0.594380000000     0.0756537  
C232     C      0.388380000000     0.212270000000     0.618110000000    -0.0889146  
C233     C      0.630230000000     0.378420000000     0.826620000000    -0.0907246  
C234     C      0.654270000000     0.378130000000     0.855100000000     0.0361924  
C235     C      0.653040000000     0.349430000000     0.879180000000    -0.088759   
C236     C      0.629050000000     0.321210000000     0.873400000000     0.0758798  
C237     C      0.607250000000     0.349830000000     0.821410000000     0.0797263  
C238     C      0.682760000000     0.405690000000     0.856520000000     0.0355152  
C239     C      0.718280000000     0.395590000000     0.861930000000    -0.0893364  
C240     C      0.745670000000     0.419950000000     0.855460000000     0.0775702  
C241     C      0.703640000000     0.464990000000     0.841070000000     0.0756773  
C242     C      0.675550000000     0.441270000000     0.847290000000    -0.0889441  
C243     C      0.618790000000     0.212160000000     0.674730000000    -0.0888849  
C244     C      0.654360000000     0.202820000000     0.681890000000     0.0354937  
C245     C      0.664450000000     0.197330000000     0.717390000000    -0.0893104  
C246     C      0.640080000000     0.203800000000     0.744810000000     0.0775979  
C247     C      0.595050000000     0.218390000000     0.702860000000     0.0756235  
C248     C      0.681930000000     0.204250000000     0.653400000000     0.0361935  
C249     C      0.710660000000     0.180130000000     0.652100000000    -0.0887468  
C250     C      0.738900000000     0.185900000000     0.628140000000     0.0758376  
C251     C      0.710250000000     0.237980000000     0.606510000000     0.0797003  
C252     C      0.681640000000     0.232770000000     0.629460000000    -0.090716   
C253     C      0.502720000000     0.221510000000     0.070140000000    -0.0901089  
C254     C      0.532140000000     0.234290000000     0.051090000000     0.0360054  
C255     C      0.562350000000     0.245420000000     0.070170000000    -0.0889844  
C256     C      0.562760000000     0.243230000000     0.107430000000     0.0761628  
C257     C      0.504150000000     0.219380000000     0.107260000000     0.0782716  
C258     C      0.531760000000     0.234360000000     0.011480000000     0.0357179  
C259     C      0.501550000000     0.245590000000     0.992460000000    -0.0887296  
C260     C      0.501160000000     0.243530000000     0.955190000000     0.0760197  
C261     C      0.559780000000     0.219630000000     0.955220000000     0.07825    
C262     C      0.561190000000     0.221630000000     0.992350000000    -0.0898766  
C263     C      0.399410000000     0.197350000000     0.344970000000    -0.0893226  
C264     C      0.409520000000     0.202790000000     0.380490000000     0.0354703  
C265     C      0.445100000000     0.212070000000     0.387680000000    -0.0888713  
C266     C      0.468820000000     0.218310000000     0.359570000000     0.0756245  
C267     C      0.423770000000     0.203830000000     0.317570000000     0.0775487  
C268     C      0.381970000000     0.204210000000     0.409010000000     0.0361963  
C269     C      0.382260000000     0.232720000000     0.433070000000    -0.0907417  
C270     C      0.353660000000     0.237940000000     0.456050000000     0.0797226  
C271     C      0.325030000000     0.185900000000     0.434230000000     0.0758751  
C272     C      0.353260000000     0.180110000000     0.410230000000    -0.0887532  
C273     C      0.630120000000     0.232600000000     0.381600000000    -0.0907752  
C274     C      0.654090000000     0.204040000000     0.381290000000     0.0361878  
C275     C      0.652800000000     0.179900000000     0.352550000000    -0.0887676  
C276     C      0.628840000000     0.185700000000     0.324310000000     0.0758606  
C277     C      0.607160000000     0.237820000000     0.352990000000     0.0797445  
C278     C      0.682590000000     0.202600000000     0.408840000000     0.0355261  
C279     C      0.718090000000     0.197060000000     0.398740000000    -0.0893851  
C280     C      0.745510000000     0.203530000000     0.423110000000     0.0776328  
C281     C      0.703550000000     0.218180000000     0.468150000000     0.0756876  
C282     C      0.675420000000     0.211950000000     0.444430000000    -0.0889711  
C283     C      0.562260000000     0.989100000000     0.249000000000    -0.0887676  
C284     C      0.532060000000     0.008130000000     0.237790000000     0.0357527  
C285     C      0.502620000000     0.989030000000     0.225110000000    -0.0898391  
C286     C      0.504010000000     0.951890000000     0.223130000000     0.0781667  
C287     C      0.562640000000     0.951820000000     0.246970000000     0.0761032  
C288     C      0.531690000000     0.047750000000     0.237700000000     0.0360485  
C289     C      0.501490000000     0.066860000000     0.248850000000    -0.0889905  
C290     C      0.501090000000     0.104120000000     0.246640000000     0.0762282  
C291     C      0.559680000000     0.103880000000     0.222730000000     0.0783148  
C292     C      0.561100000000     0.066760000000     0.224880000000    -0.0901662  
C293     C      0.561020000000     0.834440000000     0.070630000000    -0.0901533  
C294     C      0.531590000000     0.821760000000     0.051500000000     0.0360255  
C295     C      0.501370000000     0.810590000000     0.070510000000    -0.0889693  
C296     C      0.500980000000     0.812650000000     0.107790000000     0.0761912  
C297     C      0.559600000000     0.836450000000     0.107770000000     0.0783368  
C298     C      0.531980000000     0.821820000000     0.011890000000     0.0357067  
C299     C      0.562190000000     0.810630000000     0.992820000000    -0.0886823  
C300     C      0.562620000000     0.812830000000     0.955560000000     0.0760412  
C301     C      0.504020000000     0.836790000000     0.955710000000     0.0782095  
C302     C      0.502580000000     0.834650000000     0.992830000000    -0.0898255  
C303     C      0.618680000000     0.843850000000     0.388210000000    -0.0889353  
C304     C      0.654260000000     0.853130000000     0.381030000000     0.0355007  
C305     C      0.664330000000     0.858600000000     0.345520000000    -0.0893793  
C306     C      0.639950000000     0.852140000000     0.318120000000     0.0776553  
C307     C      0.594940000000     0.837630000000     0.360090000000     0.0756694  
C308     C      0.681830000000     0.851700000000     0.409510000000     0.0361886  
C309     C      0.681560000000     0.823190000000     0.433470000000    -0.0907529  
C310     C      0.710180000000     0.817980000000     0.456420000000     0.0797229  
C311     C      0.738790000000     0.870020000000     0.434750000000     0.0758807  
C312     C      0.710550000000     0.875800000000     0.410800000000    -0.0887865  
C313     C      0.410770000000     0.875930000000     0.353060000000    -0.088752   
C314     C      0.409560000000     0.851860000000     0.381760000000     0.0362321  
C315     C      0.433620000000     0.823370000000     0.382040000000    -0.0908303  
C316     C      0.456600000000     0.818160000000     0.353430000000     0.0798068  
C317     C      0.434760000000     0.870150000000     0.324820000000     0.0758362  
C318     C      0.381050000000     0.853270000000     0.409320000000     0.0354979  
C319     C      0.345530000000     0.858670000000     0.399220000000    -0.0893653  
C320     C      0.318130000000     0.852190000000     0.423590000000     0.0776168  
C321     C      0.360140000000     0.837780000000     0.468620000000     0.0756143  
C322     C      0.388240000000     0.844020000000     0.444890000000    -0.0888751  
C323     C      0.814440000000     0.558270000000     0.070390000000    -0.0889901  
C324     C      0.825650000000     0.528080000000     0.051270000000     0.0360468  
C325     C      0.838420000000     0.498640000000     0.070280000000    -0.0901547  
C326     C      0.840460000000     0.500020000000     0.107410000000     0.0782935  
C327     C      0.816540000000     0.558630000000     0.107660000000     0.0761724  
C328     C      0.825670000000     0.527740000000     0.011650000000     0.0357266  
C329     C      0.814530000000     0.497550000000     0.992520000000    -0.0887401  
C330     C      0.816650000000     0.497200000000     0.955250000000     0.0760854  
C331     C      0.840460000000     0.555820000000     0.955520000000     0.0781769  
C332     C      0.838390000000     0.557190000000     0.992650000000    -0.0898227  
C333     C      0.862560000000     0.395210000000     0.345030000000    -0.0892708  
C334     C      0.857080000000     0.405310000000     0.380560000000     0.0354671  
C335     C      0.847770000000     0.440900000000     0.387790000000    -0.0889143  
C336     C      0.841560000000     0.464630000000     0.359710000000     0.0756536  
C337     C      0.856110000000     0.419580000000     0.317660000000     0.0775471  
C338     C      0.855640000000     0.377760000000     0.409010000000     0.0361546  
C339     C      0.827110000000     0.378070000000     0.433000000000    -0.0906786  
C340     C      0.821910000000     0.349490000000     0.455950000000     0.0796711  
C341     C      0.873990000000     0.320820000000     0.434210000000     0.0758595  
C342     C      0.879760000000     0.349030000000     0.410260000000    -0.0887156  
C343     C      0.710630000000     0.406760000000     0.183410000000    -0.0887455  
C344     C      0.681900000000     0.405550000000     0.207510000000     0.0361852  
C345     C      0.681590000000     0.429610000000     0.236020000000    -0.0907494  
C346     C      0.710180000000     0.452580000000     0.241240000000     0.0797486  
C347     C      0.738850000000     0.430740000000     0.189200000000     0.0758706  
C348     C      0.654360000000     0.377050000000     0.206080000000     0.0355063  
C349     C      0.664470000000     0.341530000000     0.200630000000    -0.0893439  
C350     C      0.640110000000     0.314140000000     0.207110000000     0.0775782  
C351     C      0.595050000000     0.356170000000     0.221610000000     0.0756113  
C352     C      0.618770000000     0.384270000000     0.215370000000    -0.0889364  
C353     C      0.718060000000     0.660290000000     0.200930000000    -0.0893786  
C354     C      0.682550000000     0.650210000000     0.206360000000     0.0355192  
C355     C      0.675380000000     0.614650000000     0.215630000000    -0.0889089  
C356     C      0.703500000000     0.590910000000     0.221850000000     0.0756466  
C357     C      0.745470000000     0.635910000000     0.207400000000     0.0776584  
C358     C      0.654040000000     0.677790000000     0.207790000000     0.0361973  
C359     C      0.652790000000     0.706490000000     0.183710000000    -0.0887748  
C360     C      0.628810000000     0.734740000000     0.189500000000     0.0758843  
C361     C      0.607040000000     0.706160000000     0.241510000000     0.0797099  
C362     C      0.630020000000     0.677530000000     0.236290000000    -0.090736   
C363     C      0.847790000000     0.671310000000     0.444870000000    -0.0888748  
C364     C      0.857140000000     0.678440000000     0.409310000000     0.0354916  
C365     C      0.862650000000     0.713930000000     0.399250000000    -0.0893401  
C366     C      0.856180000000     0.741370000000     0.423630000000     0.0776594  
C367     C      0.841560000000     0.699470000000     0.468620000000     0.0756083  
C368     C      0.855720000000     0.649910000000     0.381720000000     0.0362349  
C369     C      0.879840000000     0.648610000000     0.353010000000    -0.0887938  
C370     C      0.874050000000     0.624640000000     0.324730000000     0.075892   
C371     C      0.821970000000     0.602990000000     0.353320000000     0.0797173  
C372     C      0.827190000000     0.625950000000     0.381970000000    -0.0907646  
C373     C      0.993050000000     0.497380000000     0.248880000000    -0.08865    
C374     C      0.012060000000     0.527610000000     0.237770000000     0.0356832  
C375     C      0.992930000000     0.557020000000     0.225070000000    -0.0898487  
C376     C      0.955810000000     0.555570000000     0.222970000000     0.0782182  
C377     C      0.955780000000     0.496950000000     0.246730000000     0.075996   
C378     C      0.051670000000     0.528020000000     0.237790000000     0.0360229  
C379     C      0.070810000000     0.498630000000     0.224970000000    -0.0901005  
C380     C      0.107930000000     0.500090000000     0.222900000000     0.0782932  
C381     C      0.107930000000     0.558690000000     0.246920000000     0.0760966  
C382     C      0.070660000000     0.558240000000     0.249040000000    -0.0889151  
C383     C      0.249340000000     0.558650000000     0.992760000000    -0.0886839  
C384     C      0.238190000000     0.528420000000     0.011720000000     0.035685   
C385     C      0.225460000000     0.499020000000     0.992540000000    -0.0898168  
C386     C      0.223370000000     0.500490000000     0.955420000000     0.0781856  
C387     C      0.247210000000     0.559100000000     0.955490000000     0.0760785  
C388     C      0.238190000000     0.527980000000     0.051330000000     0.0360542  
C389     C      0.249400000000     0.497760000000     0.070280000000    -0.088985   
C390     C      0.247260000000     0.497300000000     0.107550000000     0.0761752  
C391     C      0.223310000000     0.555900000000     0.107620000000     0.0782683  
C392     C      0.225390000000     0.557370000000     0.070500000000    -0.0901142  
C393     C      0.411100000000     0.349330000000     0.183350000000    -0.0887578  
C394     C      0.409810000000     0.378060000000     0.207500000000     0.0362081  
C395     C      0.433780000000     0.378340000000     0.236040000000    -0.0907741  
C396     C      0.456730000000     0.349710000000     0.241240000000     0.0797828  
C397     C      0.435060000000     0.321070000000     0.189120000000     0.0758669  
C398     C      0.381300000000     0.405620000000     0.206090000000     0.0354782  
C399     C      0.345800000000     0.395530000000     0.200550000000    -0.0893614  
C400     C      0.318370000000     0.419900000000     0.207040000000     0.0776193  
C401     C      0.360300000000     0.464930000000     0.221720000000     0.075641   
C402     C      0.388440000000     0.441200000000     0.215470000000    -0.0888919  
C403     C      0.184040000000     0.406990000000     0.352560000000    -0.0887746  
C404     C      0.208130000000     0.405740000000     0.381290000000     0.0361825  
C405     C      0.236640000000     0.429740000000     0.381620000000    -0.0907178  
C406     C      0.241840000000     0.452700000000     0.353050000000     0.079705   
C407     C      0.189810000000     0.430950000000     0.324360000000     0.0758825  
C408     C      0.206700000000     0.377280000000     0.408840000000     0.0354999  
C409     C      0.201260000000     0.341760000000     0.398720000000    -0.0893282  
C410     C      0.207720000000     0.314380000000     0.423090000000     0.0775329  
C411     C      0.222190000000     0.356420000000     0.468150000000     0.0756392  
C412     C      0.215970000000     0.384500000000     0.444420000000    -0.0888575  
C413     C      0.353080000000     0.648910000000     0.183780000000    -0.0887579  
C414     C      0.381790000000     0.650190000000     0.207890000000     0.0362283  
C415     C      0.382070000000     0.626230000000     0.236400000000    -0.0907868  
C416     C      0.353470000000     0.603290000000     0.241590000000     0.0797466  
C417     C      0.324840000000     0.624960000000     0.189540000000     0.0758768  
C418     C      0.409360000000     0.678660000000     0.206470000000     0.0354356  
C419     C      0.399280000000     0.714170000000     0.200990000000    -0.0892848  
C420     C      0.423660000000     0.741570000000     0.207450000000     0.0776112  
C421     C      0.468680000000     0.699570000000     0.221980000000     0.0755937  
C422     C      0.444940000000     0.671470000000     0.215770000000    -0.0888295  
C423     C      0.183810000000     0.706640000000     0.410910000000    -0.0887459  
C424     C      0.207940000000     0.677920000000     0.409600000000     0.0361983  
C425     C      0.236480000000     0.677660000000     0.433560000000    -0.0906854  
C426     C      0.241710000000     0.706300000000     0.456540000000     0.0796484  
C427     C      0.189600000000     0.734910000000     0.434880000000     0.0758075  
C428     C      0.206520000000     0.650350000000     0.381060000000     0.0354844  
C429     C      0.215880000000     0.614780000000     0.388170000000    -0.088874   
C430     C      0.222110000000     0.591050000000     0.360010000000     0.0756692  
C431     C      0.207470000000     0.636070000000     0.318120000000     0.0775783  
C432     C      0.200990000000     0.660430000000     0.345570000000    -0.0893412  
Fe1      Fe     0.225280000000     0.566740000000     0.224330000000     1.34887    
Fe2      Fe     0.224640000000     0.489230000000     0.224890000000     1.34896    
Fe3      Fe     0.271930000000     0.527980000000     0.271590000000     1.3647     
Fe4      Fe     0.839130000000     0.566500000000     0.225020000000     1.3489     
Fe5      Fe     0.838420000000     0.488990000000     0.224120000000     1.34852    
Fe6      Fe     0.791800000000     0.527760000000     0.271550000000     1.36472    
Fe7      Fe     0.570550000000     0.834410000000     0.224460000000     1.34881    
Fe8      Fe     0.493040000000     0.835200000000     0.225200000000     1.34878    
Fe9      Fe     0.531810000000     0.787870000000     0.271760000000     1.36494    
Fe10     Fe     0.493180000000     0.221430000000     0.223960000000     1.34917    
Fe11     Fe     0.570680000000     0.220580000000     0.224740000000     1.34891    
Fe12     Fe     0.531940000000     0.268020000000     0.271370000000     1.36471    
Fe13     Fe     0.570730000000     0.221640000000     0.838510000000     1.34882    
Fe14     Fe     0.493220000000     0.220990000000     0.837790000000     1.34877    
Fe15     Fe     0.531980000000     0.268250000000     0.791210000000     1.36457    
Fe16     Fe     0.838480000000     0.220750000000     0.569960000000     1.34878    
Fe17     Fe     0.839200000000     0.221330000000     0.492460000000     1.34864    
Fe18     Fe     0.791830000000     0.268020000000     0.531220000000     1.36495    
Fe19     Fe     0.224650000000     0.221750000000     0.570010000000     1.34908    
Fe20     Fe     0.225420000000     0.220830000000     0.492500000000     1.3485     
Fe21     Fe     0.271990000000     0.268250000000     0.531260000000     1.36462    
Fe22     Fe     0.225420000000     0.489620000000     0.838720000000     1.34905    
Fe23     Fe     0.224630000000     0.567130000000     0.838130000000     1.34851    
Fe24     Fe     0.272010000000     0.528370000000     0.791460000000     1.36467    
Fe25     Fe     0.224540000000     0.834610000000     0.493020000000     1.34893    
Fe26     Fe     0.225340000000     0.835540000000     0.570530000000     1.34864    
Fe27     Fe     0.271920000000     0.788070000000     0.531750000000     1.36492    
Fe28     Fe     0.838400000000     0.835140000000     0.492970000000     1.3489     
Fe29     Fe     0.839090000000     0.834580000000     0.570480000000     1.34873    
Fe30     Fe     0.791770000000     0.787910000000     0.531710000000     1.36511    
Fe31     Fe     0.493090000000     0.834780000000     0.839010000000     1.3491     
Fe32     Fe     0.570600000000     0.835480000000     0.838250000000     1.3486     
Fe33     Fe     0.531850000000     0.788110000000     0.791620000000     1.36474    
Fe34     Fe     0.838390000000     0.566890000000     0.838830000000     1.34876    
Fe35     Fe     0.839240000000     0.489380000000     0.837880000000     1.34851    
Fe36     Fe     0.791840000000     0.528140000000     0.791380000000     1.36485    
H1       H      0.609560000000     0.644550000000     0.843730000000     0.0508574  
H2       H      0.568030000000     0.693250000000     0.832990000000     0.0238425  
H3       H      0.649390000000     0.768970000000     0.859230000000     0.0223961  
H4       H      0.691540000000     0.721190000000     0.869450000000     0.05123    
H5       H      0.660160000000     0.626450000000     0.807460000000     0.0515104  
H6       H      0.708900000000     0.585890000000     0.798620000000     0.0212364  
H7       H      0.761000000000     0.625390000000     0.892310000000     0.0221427  
H8       H      0.711580000000     0.667090000000     0.902230000000     0.0507686  
H9       H      0.902300000000     0.707960000000     0.670740000000     0.0508077  
H10      H      0.892440000000     0.757310000000     0.629080000000     0.0221245  
H11      H      0.798850000000     0.705170000000     0.589530000000     0.0212557  
H12      H      0.807640000000     0.656490000000     0.630050000000     0.0514932  
H13      H      0.869480000000     0.687910000000     0.724820000000     0.0512256  
H14      H      0.859280000000     0.645750000000     0.772500000000     0.0224137  
H15      H      0.833240000000     0.564370000000     0.696590000000     0.0238506  
H16      H      0.843960000000     0.605920000000     0.647990000000     0.0508412  
H17      H      0.724790000000     0.865990000000     0.691400000000     0.0512164  
H18      H      0.772560000000     0.855790000000     0.649230000000     0.0223941  
H19      H      0.696840000000     0.829300000000     0.567900000000     0.0238264  
H20      H      0.648150000000     0.840020000000     0.609460000000     0.0508384  
H21      H      0.670600000000     0.898700000000     0.711490000000     0.050777   
H22      H      0.628980000000     0.888830000000     0.760900000000     0.0221502  
H23      H      0.589740000000     0.795030000000     0.708790000000     0.0212503  
H24      H      0.630240000000     0.803810000000     0.660050000000     0.0514776  
H25      H      0.056940000000     0.800410000000     0.585410000000     0.0515194  
H26      H      0.121780000000     0.804150000000     0.586500000000     0.024144   
H27      H      0.121450000000     0.847060000000     0.480690000000     0.0221772  
H28      H      0.057020000000     0.843740000000     0.478860000000     0.0513264  
H29      H      0.006860000000     0.800120000000     0.478200000000     0.0514233  
H30      H      0.942010000000     0.803690000000     0.477100000000     0.024168   
H31      H      0.942160000000     0.847020000000     0.582900000000     0.0222026  
H32      H      0.006600000000     0.843870000000     0.584740000000     0.0512489  
H33      H      0.403550000000     0.804020000000     0.630030000000     0.0514958  
H34      H      0.354820000000     0.795230000000     0.589480000000     0.0212447  
H35      H      0.302710000000     0.888940000000     0.629030000000     0.0221405  
H36      H      0.352110000000     0.898810000000     0.670720000000     0.0507754  
H37      H      0.454130000000     0.840250000000     0.648100000000     0.0508273  
H38      H      0.495660000000     0.829480000000     0.696780000000     0.023845   
H39      H      0.414290000000     0.855790000000     0.772550000000     0.0223775  
H40      H      0.372150000000     0.866030000000     0.724800000000     0.0512268  
H41      H      0.006800000000     0.475320000000     0.847120000000     0.0512476  
H42      H      0.942350000000     0.477080000000     0.850330000000     0.0222232  
H43      H      0.941950000000     0.582920000000     0.807480000000     0.0241801  
H44      H      0.006790000000     0.581900000000     0.803850000000     0.0514413  
H45      H      0.057050000000     0.581260000000     0.847370000000     0.0513004  
H46      H      0.121500000000     0.579470000000     0.850590000000     0.0221764  
H47      H      0.121880000000     0.473680000000     0.807230000000     0.0241392  
H48      H      0.057040000000     0.474720000000     0.803590000000     0.0514914  
H49      H      0.415540000000     0.606050000000     0.843660000000     0.0508447  
H50      H      0.366870000000     0.564520000000     0.832920000000     0.0238336  
H51      H      0.291110000000     0.645910000000     0.859290000000     0.0223647  
H52      H      0.338860000000     0.688050000000     0.869510000000     0.0512862  
H53      H      0.393000000000     0.708130000000     0.902260000000     0.0507576  
H54      H      0.434650000000     0.757500000000     0.892380000000     0.0221746  
H55      H      0.474000000000     0.705310000000     0.798630000000     0.0212602  
H56      H      0.433480000000     0.656600000000     0.807420000000     0.0514836  
H57      H      0.256150000000     0.626730000000     0.660060000000     0.0514796  
H58      H      0.264940000000     0.586200000000     0.708720000000     0.0212614  
H59      H      0.171280000000     0.625720000000     0.760890000000     0.0221534  
H60      H      0.161420000000     0.667400000000     0.711550000000     0.0507664  
H61      H      0.219830000000     0.644680000000     0.609500000000     0.0508439  
H62      H      0.230540000000     0.693290000000     0.567970000000     0.0238435  
H63      H      0.204410000000     0.769190000000     0.649370000000     0.0223854  
H64      H      0.194230000000     0.721490000000     0.691520000000     0.0512375  
H65      H      0.259630000000     0.053370000000     0.585100000000     0.0514985  
H66      H      0.256040000000     0.118220000000     0.586060000000     0.0241449  
H67      H      0.212970000000     0.117670000000     0.480240000000     0.0221643  
H68      H      0.216130000000     0.053220000000     0.478530000000     0.0513044  
H69      H      0.259620000000     0.002920000000     0.477960000000     0.0514061  
H70      H      0.255960000000     0.938080000000     0.476980000000     0.0241937  
H71      H      0.212860000000     0.938710000000     0.582790000000     0.0222058  
H72      H      0.216080000000     0.003160000000     0.584520000000     0.0512191  
H73      H      0.256050000000     0.400010000000     0.629620000000     0.0515193  
H74      H      0.264850000000     0.351230000000     0.589050000000     0.0212554  
H75      H      0.171200000000     0.299230000000     0.628470000000     0.0221548  
H76      H      0.161330000000     0.348690000000     0.670180000000     0.0507619  
H77      H      0.194140000000     0.368730000000     0.724290000000     0.0512323  
H78      H      0.204400000000     0.410870000000     0.772110000000     0.0223688  
H79      H      0.230620000000     0.492190000000     0.696500000000     0.0238117  
H80      H      0.219840000000     0.450650000000     0.647740000000     0.0508296  
H81      H      0.847630000000     0.053310000000     0.584370000000     0.0513287  
H82      H      0.850940000000     0.117730000000     0.582430000000     0.0221601  
H83      H      0.807770000000     0.117690000000     0.476640000000     0.0241248  
H84      H      0.804050000000     0.052850000000     0.477840000000     0.0515217  
H85      H      0.804030000000     0.003110000000     0.585120000000     0.0514192  
H86      H      0.807680000000     0.938270000000     0.586300000000     0.0241548  
H87      H      0.850810000000     0.938130000000     0.480500000000     0.0221982  
H88      H      0.847580000000     0.002560000000     0.478570000000     0.0512283  
H89      H      0.006840000000     0.255980000000     0.584750000000     0.0514551  
H90      H      0.942010000000     0.252280000000     0.585850000000     0.0241563  
H91      H      0.942300000000     0.208880000000     0.480070000000     0.0222163  
H92      H      0.006740000000     0.212160000000     0.478240000000     0.0512507  
H93      H      0.056950000000     0.255730000000     0.477550000000     0.0514652  
H94      H      0.121810000000     0.252130000000     0.476510000000     0.0241561  
H95      H      0.121580000000     0.209300000000     0.582350000000     0.0221581  
H96      H      0.057130000000     0.212470000000     0.584140000000     0.051316   
H97      H      0.869790000000     0.335150000000     0.690860000000     0.051232   
H98      H      0.859540000000     0.287340000000     0.648710000000     0.0223768  
H99      H      0.833190000000     0.362980000000     0.567410000000     0.0238234  
H100     H      0.843970000000     0.411720000000     0.608960000000     0.0508306  
H101     H      0.807780000000     0.429830000000     0.659590000000     0.0514902  
H102     H      0.798980000000     0.470380000000     0.708390000000     0.0212513  
H103     H      0.892690000000     0.430960000000     0.760380000000     0.0221474  
H104     H      0.902570000000     0.389270000000     0.710910000000     0.0507969  
H105     H      0.585560000000     0.053100000000     0.803660000000     0.0515078  
H106     H      0.586640000000     0.117960000000     0.807180000000     0.0240959  
H107     H      0.480800000000     0.117960000000     0.850220000000     0.0221837  
H108     H      0.478970000000     0.053520000000     0.847130000000     0.0513283  
H109     H      0.478330000000     0.003120000000     0.803700000000     0.0514458  
H110     H      0.477200000000     0.938300000000     0.807510000000     0.0241742  
H111     H      0.582970000000     0.938570000000     0.850710000000     0.0221877  
H112     H      0.584840000000     0.003000000000     0.847320000000     0.0512504  
H113     H      0.372320000000     0.335360000000     0.869160000000     0.0512408  
H114     H      0.414480000000     0.287570000000     0.858920000000     0.0223922  
H115     H      0.495800000000     0.363230000000     0.832640000000     0.0238292  
H116     H      0.454240000000     0.411950000000     0.843400000000     0.0508557  
H117     H      0.352260000000     0.389530000000     0.901940000000     0.0507926  
H118     H      0.302830000000     0.431190000000     0.892090000000     0.0221532  
H119     H      0.354870000000     0.470470000000     0.798410000000     0.0212542  
H120     H      0.403620000000     0.429940000000     0.807190000000     0.0515166  
H121     H      0.433600000000     0.252380000000     0.659640000000     0.0514743  
H122     H      0.474150000000     0.261160000000     0.708370000000     0.0212292  
H123     H      0.434640000000     0.167610000000     0.760400000000     0.0221352  
H124     H      0.392950000000     0.157760000000     0.711000000000     0.0507863  
H125     H      0.338860000000     0.190620000000     0.690970000000     0.051255   
H126     H      0.291110000000     0.200850000000     0.648820000000     0.0223768  
H127     H      0.366880000000     0.226850000000     0.567480000000     0.0238263  
H128     H      0.415550000000     0.216090000000     0.609020000000     0.0508527  
H129     H      0.671040000000     0.348360000000     0.901770000000     0.0507939  
H130     H      0.629350000000     0.298980000000     0.891890000000     0.022129   
H131     H      0.589810000000     0.351050000000     0.798330000000     0.0212357  
H132     H      0.630360000000     0.399750000000     0.807130000000     0.0514762  
H133     H      0.725120000000     0.368390000000     0.868910000000     0.0512452  
H134     H      0.772850000000     0.410540000000     0.858720000000     0.0223979  
H135     H      0.697010000000     0.491900000000     0.832750000000     0.0238262  
H136     H      0.648370000000     0.450360000000     0.843470000000     0.0508664  
H137     H      0.691650000000     0.190260000000     0.724200000000     0.0512191  
H138     H      0.649490000000     0.200480000000     0.771970000000     0.0223892  
H139     H      0.568150000000     0.226800000000     0.696270000000     0.0238194  
H140     H      0.609700000000     0.216060000000     0.647570000000     0.0508326  
H141     H      0.711730000000     0.157510000000     0.670020000000     0.0507859  
H142     H      0.761140000000     0.167380000000     0.628380000000     0.0221663  
H143     H      0.709020000000     0.261080000000     0.589140000000     0.0212478  
H144     H      0.660290000000     0.252290000000     0.629650000000     0.0514747  
H145     H      0.585540000000     0.255780000000     0.056400000000     0.0515278  
H146     H      0.586630000000     0.252020000000     0.121230000000     0.0241594  
H147     H      0.480840000000     0.208940000000     0.120840000000     0.0221668  
H148     H      0.479010000000     0.212280000000     0.056410000000     0.0513241  
H149     H      0.478340000000     0.255910000000     0.006290000000     0.0514272  
H150     H      0.477290000000     0.252380000000     0.941430000000     0.0241653  
H151     H      0.583110000000     0.209220000000     0.941570000000     0.0222043  
H152     H      0.584910000000     0.212330000000     0.006020000000     0.0512257  
H153     H      0.454190000000     0.215930000000     0.414860000000     0.050832   
H154     H      0.495720000000     0.226670000000     0.366190000000     0.0238331  
H155     H      0.414350000000     0.200550000000     0.290400000000     0.0223953  
H156     H      0.372210000000     0.190330000000     0.338150000000     0.0512371  
H157     H      0.403600000000     0.252220000000     0.432940000000     0.0514838  
H158     H      0.354880000000     0.261040000000     0.473510000000     0.0212466  
H159     H      0.302800000000     0.167390000000     0.433930000000     0.0221253  
H160     H      0.352190000000     0.157500000000     0.392210000000     0.0507736  
H161     H      0.670750000000     0.157260000000     0.351460000000     0.0507892  
H162     H      0.629100000000     0.167160000000     0.302060000000     0.0221394  
H163     H      0.589770000000     0.260950000000     0.354220000000     0.0212338  
H164     H      0.630290000000     0.252130000000     0.402950000000     0.0515104  
H165     H      0.724900000000     0.189980000000     0.371540000000     0.0512563  
H166     H      0.772680000000     0.200180000000     0.413690000000     0.0223778  
H167     H      0.696950000000     0.226610000000     0.495070000000     0.0238179  
H168     H      0.648260000000     0.215880000000     0.453520000000     0.0508723  
H169     H      0.478900000000     0.002720000000     0.215830000000     0.0512148  
H170     H      0.480680000000     0.938270000000     0.212760000000     0.0221974  
H171     H      0.586520000000     0.938050000000     0.255800000000     0.0241345  
H172     H      0.585480000000     0.002910000000     0.259290000000     0.0514294  
H173     H      0.478290000000     0.053120000000     0.259250000000     0.0515016  
H174     H      0.477210000000     0.117950000000     0.255450000000     0.0241424  
H175     H      0.582990000000     0.117440000000     0.212260000000     0.0221503  
H176     H      0.584810000000     0.053010000000     0.215640000000     0.0513386  
H177     H      0.478160000000     0.800300000000     0.056670000000     0.0515024  
H178     H      0.477090000000     0.803850000000     0.121540000000     0.024101   
H179     H      0.582930000000     0.846820000000     0.121410000000     0.0221623  
H180     H      0.584740000000     0.843690000000     0.056970000000     0.0513474  
H181     H      0.585380000000     0.800230000000     0.006600000000     0.05141    
H182     H      0.586500000000     0.804000000000     0.941770000000     0.0241926  
H183     H      0.480720000000     0.847270000000     0.942120000000     0.0221858  
H184     H      0.478860000000     0.843930000000     0.006550000000     0.0512122  
H185     H      0.691520000000     0.865630000000     0.338700000000     0.0512565  
H186     H      0.649340000000     0.855450000000     0.290950000000     0.0223775  
H187     H      0.568040000000     0.829260000000     0.366700000000     0.0238012  
H188     H      0.609610000000     0.839970000000     0.415370000000     0.0508703  
H189     H      0.660230000000     0.803690000000     0.433290000000     0.0515031  
H190     H      0.708970000000     0.794890000000     0.473800000000     0.0212528  
H191     H      0.761020000000     0.888530000000     0.434500000000     0.0221535  
H192     H      0.711600000000     0.898400000000     0.392860000000     0.0508135  
H193     H      0.433510000000     0.803900000000     0.403370000000     0.051535   
H194     H      0.474060000000     0.795080000000     0.354640000000     0.021219   
H195     H      0.434450000000     0.888630000000     0.302590000000     0.0221366  
H196     H      0.392750000000     0.898520000000     0.352000000000     0.050784   
H197     H      0.338700000000     0.865660000000     0.372030000000     0.0512651  
H198     H      0.290960000000     0.855440000000     0.414180000000     0.0223863  
H199     H      0.366760000000     0.829450000000     0.495520000000     0.0238478  
H200     H      0.415420000000     0.840200000000     0.453980000000     0.0508372  
H201     H      0.847700000000     0.474940000000     0.056520000000     0.0513456  
H202     H      0.850890000000     0.476690000000     0.120970000000     0.0221827  
H203     H      0.807700000000     0.582500000000     0.121500000000     0.0241508  
H204     H      0.804090000000     0.581490000000     0.056650000000     0.0515139  
H205     H      0.804200000000     0.474330000000     0.006250000000     0.0514231  
H206     H      0.807850000000     0.473330000000     0.941400000000     0.0241855  
H207     H      0.850860000000     0.579160000000     0.941970000000     0.0222243  
H208     H      0.847630000000     0.580900000000     0.006420000000     0.0512092  
H209     H      0.843880000000     0.449990000000     0.414970000000     0.0508628  
H210     H      0.833170000000     0.491540000000     0.366360000000     0.0238354  
H211     H      0.859430000000     0.410170000000     0.290480000000     0.0224047  
H212     H      0.869610000000     0.368000000000     0.338170000000     0.0512086  
H213     H      0.807590000000     0.399420000000     0.432860000000     0.0514685  
H214     H      0.798800000000     0.350740000000     0.473360000000     0.0212732  
H215     H      0.892520000000     0.298590000000     0.433930000000     0.0221517  
H216     H      0.902380000000     0.347940000000     0.392290000000     0.0507763  
H217     H      0.660240000000     0.429490000000     0.255520000000     0.0514937  
H218     H      0.708950000000     0.470040000000     0.264340000000     0.0212399  
H219     H      0.761100000000     0.430430000000     0.170690000000     0.0221236  
H220     H      0.711720000000     0.388740000000     0.160800000000     0.0507728  
H221     H      0.691670000000     0.334680000000     0.193600000000     0.0512403  
H222     H      0.649530000000     0.286960000000     0.203820000000     0.0223901  
H223     H      0.568140000000     0.362810000000     0.229980000000     0.02384    
H224     H      0.609670000000     0.411440000000     0.219230000000     0.0508797  
H225     H      0.648210000000     0.605570000000     0.219480000000     0.050836   
H226     H      0.696890000000     0.564010000000     0.230200000000     0.0238246  
H227     H      0.772640000000     0.645310000000     0.204120000000     0.022382   
H228     H      0.724870000000     0.687480000000     0.193920000000     0.0512521  
H229     H      0.670780000000     0.707530000000     0.161110000000     0.0507829  
H230     H      0.629090000000     0.756970000000     0.171010000000     0.02214    
H231     H      0.589610000000     0.704970000000     0.264600000000     0.0212531  
H232     H      0.630160000000     0.656200000000     0.255770000000     0.0514952  
H233     H      0.869730000000     0.720710000000     0.372060000000     0.0512296  
H234     H      0.859520000000     0.768520000000     0.414240000000     0.0223728  
H235     H      0.833140000000     0.692910000000     0.495510000000     0.0238153  
H236     H      0.843880000000     0.644160000000     0.453940000000     0.0508369  
H237     H      0.902470000000     0.666540000000     0.351980000000     0.0508059  
H238     H      0.892570000000     0.624880000000     0.302500000000     0.0221523  
H239     H      0.798850000000     0.585610000000     0.354500000000     0.0212529  
H240     H      0.807670000000     0.626140000000     0.403300000000     0.051498   
H241     H      0.006600000000     0.580750000000     0.215860000000     0.0512221  
H242     H      0.942170000000     0.578880000000     0.212590000000     0.0221985  
H243     H      0.942030000000     0.473070000000     0.255490000000     0.0241819  
H244     H      0.006880000000     0.474180000000     0.259180000000     0.0513965  
H245     H      0.057150000000     0.474900000000     0.215650000000     0.0513036  
H246     H      0.121590000000     0.476790000000     0.212430000000     0.022179   
H247     H      0.121670000000     0.582570000000     0.255790000000     0.0241408  
H248     H      0.056820000000     0.581430000000     0.259440000000     0.0514815  
H249     H      0.216220000000     0.475280000000     0.006170000000     0.0512051  
H250     H      0.212970000000     0.477180000000     0.941740000000     0.0222012  
H251     H      0.256000000000     0.582990000000     0.941790000000     0.0241465  
H252     H      0.259670000000     0.581840000000     0.006630000000     0.0514015  
H253     H      0.259780000000     0.474580000000     0.056410000000     0.0515082  
H254     H      0.256100000000     0.473410000000     0.121250000000     0.0241167  
H255     H      0.212850000000     0.579200000000     0.121310000000     0.0221859  
H256     H      0.216110000000     0.581110000000     0.056880000000     0.0513135  
H257     H      0.433600000000     0.399690000000     0.255580000000     0.0514932  
H258     H      0.474120000000     0.350930000000     0.264360000000     0.0212181  
H259     H      0.434800000000     0.298830000000     0.170570000000     0.0221394  
H260     H      0.393160000000     0.348260000000     0.160710000000     0.0507759  
H261     H      0.339010000000     0.368340000000     0.193440000000     0.0512522  
H262     H      0.291210000000     0.410490000000     0.203680000000     0.0223904  
H263     H      0.366880000000     0.491830000000     0.230170000000     0.0238222  
H264     H      0.415600000000     0.450280000000     0.219400000000     0.0508362  
H265     H      0.256140000000     0.429600000000     0.402970000000     0.0514849  
H266     H      0.264930000000     0.470110000000     0.354300000000     0.0212605  
H267     H      0.171300000000     0.430670000000     0.302120000000     0.0221339  
H268     H      0.161440000000     0.389020000000     0.351470000000     0.0507932  
H269     H      0.194240000000     0.334900000000     0.371520000000     0.0512413  
H270     H      0.204440000000     0.287200000000     0.413670000000     0.0224053  
H271     H      0.230540000000     0.363070000000     0.495070000000     0.0238465  
H272     H      0.219830000000     0.411690000000     0.453530000000     0.0508097  
H273     H      0.403410000000     0.626410000000     0.255910000000     0.0515036  
H274     H      0.354690000000     0.585900000000     0.264690000000     0.0212567  
H275     H      0.302610000000     0.625220000000     0.171010000000     0.0221577  
H276     H      0.352010000000     0.666850000000     0.161170000000     0.0507769  
H277     H      0.372080000000     0.721000000000     0.193940000000     0.0512095  
H278     H      0.414260000000     0.768740000000     0.204130000000     0.022387   
H279     H      0.495580000000     0.692950000000     0.230360000000     0.0238163  
H280     H      0.454020000000     0.644290000000     0.219650000000     0.0508051  
H281     H      0.256010000000     0.656320000000     0.433380000000     0.0514691  
H282     H      0.264830000000     0.705110000000     0.473920000000     0.0212597  
H283     H      0.171080000000     0.757150000000     0.434640000000     0.0221701  
H284     H      0.161180000000     0.707690000000     0.392960000000     0.0507773  
H285     H      0.219800000000     0.605700000000     0.415330000000     0.0508101  
H286     H      0.230540000000     0.564150000000     0.366570000000     0.0238108  
H287     H      0.204120000000     0.645460000000     0.290970000000     0.0223876  
H288     H      0.193900000000     0.687620000000     0.338800000000     0.0512362  
N1       N      0.606020000000     0.734630000000     0.844010000000    -0.214186   
N2       N      0.739100000000     0.603480000000     0.844220000000    -0.215452   
N3       N      0.844410000000     0.735380000000     0.607140000000    -0.215443   
N4       N      0.844170000000     0.602360000000     0.738070000000    -0.214138   
N5       N      0.738230000000     0.840450000000     0.605870000000    -0.21417    
N6       N      0.607200000000     0.840690000000     0.738990000000    -0.215475   
N7       N      0.126370000000     0.826220000000     0.533890000000    -0.215182   
N8       N      0.937330000000     0.825970000000     0.529710000000    -0.215085   
N9       N      0.324620000000     0.840840000000     0.607100000000    -0.215442   
N10      N      0.457670000000     0.840530000000     0.738190000000    -0.214242   
N11      N      0.937400000000     0.530290000000     0.829520000000    -0.215052   
N12      N      0.126440000000     0.526290000000     0.829530000000    -0.215125   
N13      N      0.325460000000     0.602520000000     0.844010000000    -0.214212   
N14      N      0.456490000000     0.735550000000     0.844260000000    -0.215479   
N15      N      0.219350000000     0.603790000000     0.738950000000    -0.215399   
N16      N      0.219570000000     0.734770000000     0.605970000000    -0.214211   
N17      N      0.233900000000     0.122700000000     0.533430000000    -0.215185   
N18      N      0.233790000000     0.933640000000     0.529600000000    -0.215151   
N19      N      0.219270000000     0.321080000000     0.606600000000    -0.21542    
N20      N      0.219610000000     0.454220000000     0.737830000000    -0.214244   
N21      N      0.829980000000     0.122460000000     0.529230000000    -0.215164   
N22      N      0.829860000000     0.933450000000     0.533700000000    -0.215059   
N23      N      0.937410000000     0.229960000000     0.533260000000    -0.21512    
N24      N      0.126440000000     0.230100000000     0.529140000000    -0.2151     
N25      N      0.844260000000     0.321630000000     0.605370000000    -0.214218   
N26      N      0.844590000000     0.452820000000     0.738540000000    -0.215429   
N27      N      0.534020000000     0.122720000000     0.829310000000    -0.215215   
N28      N      0.529790000000     0.933690000000     0.829730000000    -0.215145   
N29      N      0.457830000000     0.321870000000     0.843680000000    -0.214168   
N30      N      0.324700000000     0.452990000000     0.844010000000    -0.215467   
N31      N      0.456560000000     0.215630000000     0.738530000000    -0.215457   
N32      N      0.325470000000     0.215940000000     0.605450000000    -0.214254   
N33      N      0.607410000000     0.320870000000     0.843870000000    -0.215485   
N34      N      0.738450000000     0.453920000000     0.843640000000    -0.2142     
N35      N      0.606120000000     0.215730000000     0.737650000000    -0.214179   
N36      N      0.739230000000     0.215470000000     0.606600000000    -0.215455   
N37      N      0.534030000000     0.229860000000     0.125790000000    -0.21516    
N38      N      0.529910000000     0.230190000000     0.936750000000    -0.215077   
N39      N      0.457740000000     0.215700000000     0.324770000000    -0.214178   
N40      N      0.324690000000     0.215460000000     0.455880000000    -0.215413   
N41      N      0.607270000000     0.215300000000     0.324000000000    -0.215485   
N42      N      0.738340000000     0.215490000000     0.457070000000    -0.214213   
N43      N      0.533890000000     0.933400000000     0.233670000000    -0.215178   
N44      N      0.529810000000     0.122440000000     0.233230000000    -0.215208   
N45      N      0.529720000000     0.825940000000     0.126230000000    -0.215244   
N46      N      0.533900000000     0.826260000000     0.937200000000    -0.215077   
N47      N      0.605990000000     0.840260000000     0.325290000000    -0.214297   
N48      N      0.739140000000     0.840470000000     0.456320000000    -0.215441   
N49      N      0.456420000000     0.840610000000     0.324470000000    -0.215482   
N50      N      0.325330000000     0.840350000000     0.457550000000    -0.214288   
N51      N      0.829910000000     0.529880000000     0.125990000000    -0.215144   
N52      N      0.829970000000     0.525960000000     0.936930000000    -0.215127   
N53      N      0.844210000000     0.453560000000     0.324890000000    -0.214228   
N54      N      0.844430000000     0.320520000000     0.455810000000    -0.21537    
N55      N      0.739160000000     0.452390000000     0.218760000000    -0.21543    
N56      N      0.606140000000     0.321360000000     0.219000000000    -0.214206   
N57      N      0.738300000000     0.601960000000     0.219260000000    -0.214281   
N58      N      0.607190000000     0.735120000000     0.219050000000    -0.215473   
N59      N      0.844230000000     0.734250000000     0.457570000000    -0.21425    
N60      N      0.844470000000     0.603090000000     0.324350000000    -0.215466   
N61      N      0.937350000000     0.525680000000     0.233420000000    -0.215071   
N62      N      0.126380000000     0.529980000000     0.233490000000    -0.215156   
N63      N      0.233870000000     0.530390000000     0.937010000000    -0.215152   
N64      N      0.233860000000     0.526000000000     0.126030000000    -0.215136   
N65      N      0.456620000000     0.320730000000     0.218710000000    -0.215516   
N66      N      0.325510000000     0.453860000000     0.219030000000    -0.214277   
N67      N      0.219350000000     0.452560000000     0.324070000000    -0.21548    
N68      N      0.219580000000     0.321610000000     0.457070000000    -0.214123   
N69      N      0.324510000000     0.603390000000     0.219080000000    -0.215415   
N70      N      0.457620000000     0.734380000000     0.219340000000    -0.214223   
N71      N      0.219200000000     0.735280000000     0.456440000000    -0.215378   
N72      N      0.219440000000     0.602110000000     0.325230000000    -0.214306   
O1       O      0.293450000000     0.569370000000     0.258340000000    -0.510766   
O2       O      0.207130000000     0.476790000000     0.268830000000    -0.494012   
O3       O      0.269240000000     0.579170000000     0.206830000000    -0.493741   
O4       O      0.230150000000     0.591910000000     0.266070000000    -0.498645   
O5       O      0.303840000000     0.506550000000     0.241690000000    -0.497687   
O6       O      0.179290000000     0.505210000000     0.216000000000    -0.502253   
O7       O      0.240530000000     0.527980000000     0.240180000000    -0.874235   
O8       O      0.241030000000     0.498360000000     0.180110000000    -0.499049   
O9       O      0.216370000000     0.550760000000     0.178970000000    -0.502258   
O10      O      0.242050000000     0.549420000000     0.303510000000    -0.497692   
O11      O      0.180490000000     0.557610000000     0.240710000000    -0.499057   
O12      O      0.266360000000     0.464050000000     0.229730000000    -0.498499   
O13      O      0.258630000000     0.486600000000     0.293070000000    -0.510975   
O14      O      0.805140000000     0.569120000000     0.293200000000    -0.510888   
O15      O      0.794440000000     0.476600000000     0.206580000000    -0.493701   
O16      O      0.856660000000     0.578870000000     0.269010000000    -0.493953   
O17      O      0.797430000000     0.591720000000     0.229980000000    -0.498332   
O18      O      0.821660000000     0.506280000000     0.303380000000    -0.497678   
O19      O      0.847310000000     0.505000000000     0.178810000000    -0.502183   
O20      O      0.823200000000     0.527750000000     0.240140000000    -0.874092   
O21      O      0.883220000000     0.498080000000     0.240520000000    -0.499198   
O22      O      0.884450000000     0.550490000000     0.216030000000    -0.502478   
O23      O      0.759910000000     0.549240000000     0.241740000000    -0.497491   
O24      O      0.822720000000     0.557430000000     0.180200000000    -0.499092   
O25      O      0.833540000000     0.463790000000     0.265760000000    -0.498388   
O26      O      0.770240000000     0.486410000000     0.258120000000    -0.5109     
O27      O      0.573180000000     0.766260000000     0.258390000000    -0.510969   
O28      O      0.480630000000     0.852760000000     0.269190000000    -0.494037   
O29      O      0.582960000000     0.790410000000     0.206890000000    -0.493786   
O30      O      0.595750000000     0.829530000000     0.266140000000    -0.498478   
O31      O      0.510350000000     0.755980000000     0.241880000000    -0.497463   
O32      O      0.509040000000     0.880500000000     0.216310000000    -0.502447   
O33      O      0.531800000000     0.819240000000     0.240380000000    -0.874202   
O34      O      0.502150000000     0.818760000000     0.180370000000    -0.49899    
O35      O      0.554550000000     0.843310000000     0.179140000000    -0.502356   
O36      O      0.553270000000     0.817730000000     0.303660000000    -0.497706   
O37      O      0.561450000000     0.879240000000     0.240890000000    -0.499028   
O38      O      0.467850000000     0.793530000000     0.230050000000    -0.498311   
O39      O      0.490440000000     0.801260000000     0.293340000000    -0.511097   
O40      O      0.490580000000     0.289630000000     0.258020000000    -0.510745   
O41      O      0.583050000000     0.203080000000     0.268700000000    -0.494046   
O42      O      0.480820000000     0.265400000000     0.206470000000    -0.494019   
O43      O      0.467960000000     0.226400000000     0.265640000000    -0.498322   
O44      O      0.553420000000     0.299830000000     0.241550000000    -0.497702   
O45      O      0.554650000000     0.175260000000     0.215770000000    -0.502239   
O46      O      0.531930000000     0.236590000000     0.239930000000    -0.874357   
O47      O      0.561620000000     0.236950000000     0.179950000000    -0.499102   
O48      O      0.509190000000     0.212430000000     0.178630000000    -0.502145   
O49      O      0.510450000000     0.238220000000     0.303200000000    -0.497682   
O50      O      0.502240000000     0.176640000000     0.240330000000    -0.499354   
O51      O      0.595900000000     0.262240000000     0.229680000000    -0.498367   
O52      O      0.573300000000     0.254640000000     0.292940000000    -0.510866   
O53      O      0.573360000000     0.289780000000     0.804560000000    -0.510997   
O54      O      0.480800000000     0.203440000000     0.793800000000    -0.493811   
O55      O      0.583160000000     0.265630000000     0.856060000000    -0.49379    
O56      O      0.595910000000     0.226460000000     0.796810000000    -0.498398   
O57      O      0.510540000000     0.300180000000     0.821100000000    -0.49741    
O58      O      0.509200000000     0.175660000000     0.846680000000    -0.502483   
O59      O      0.531980000000     0.236870000000     0.822590000000    -0.874028   
O60      O      0.502330000000     0.237420000000     0.882610000000    -0.499056   
O61      O      0.554740000000     0.212790000000     0.883830000000    -0.502443   
O62      O      0.553410000000     0.238340000000     0.759300000000    -0.497518   
O63      O      0.561610000000     0.176830000000     0.822090000000    -0.499058   
O64      O      0.468040000000     0.262700000000     0.832940000000    -0.498319   
O65      O      0.490590000000     0.254930000000     0.769650000000    -0.510899   
O66      O      0.770280000000     0.254740000000     0.572600000000    -0.510745   
O67      O      0.856680000000     0.265280000000     0.480030000000    -0.493891   
O68      O      0.794520000000     0.203230000000     0.582370000000    -0.49372    
O69      O      0.833540000000     0.262480000000     0.595160000000    -0.498481   
O70      O      0.759970000000     0.238130000000     0.509780000000    -0.497628   
O71      O      0.884540000000     0.212450000000     0.508450000000    -0.50229    
O72      O      0.823250000000     0.236610000000     0.531210000000    -0.874288   
O73      O      0.822830000000     0.176540000000     0.501580000000    -0.498947   
O74      O      0.847450000000     0.175390000000     0.553970000000    -0.502373   
O75      O      0.821670000000     0.299930000000     0.552670000000    -0.497775   
O76      O      0.883260000000     0.237140000000     0.560860000000    -0.499091   
O77      O      0.797490000000     0.226170000000     0.467280000000    -0.498337   
O78      O      0.805140000000     0.289510000000     0.489850000000    -0.511015   
O79      O      0.258620000000     0.289910000000     0.572620000000    -0.510757   
O80      O      0.269420000000     0.203280000000     0.480110000000    -0.493675   
O81      O      0.207090000000     0.265750000000     0.582380000000    -0.493754   
O82      O      0.266330000000     0.226690000000     0.595220000000    -0.498434   
O83      O      0.242120000000     0.300090000000     0.509790000000    -0.49757    
O84      O      0.216540000000     0.175530000000     0.508520000000    -0.502238   
O85      O      0.240600000000     0.236850000000     0.531260000000    -0.87415    
O86      O      0.180600000000     0.237240000000     0.501580000000    -0.499193   
O87      O      0.179340000000     0.212780000000     0.554000000000    -0.502428   
O88      O      0.303870000000     0.238430000000     0.552740000000    -0.497615   
O89      O      0.241070000000     0.176920000000     0.560950000000    -0.499173   
O90      O      0.230290000000     0.262470000000     0.467300000000    -0.498353   
O91      O      0.293580000000     0.254830000000     0.489900000000    -0.510982   
O92      O      0.293600000000     0.486990000000     0.804730000000    -0.510747   
O93      O      0.207120000000     0.579560000000     0.794180000000    -0.493831   
O94      O      0.269400000000     0.477220000000     0.856240000000    -0.493783   
O95      O      0.230350000000     0.464430000000     0.796990000000    -0.498568   
O96      O      0.303870000000     0.549810000000     0.821360000000    -0.497506   
O97      O      0.179300000000     0.551130000000     0.847000000000    -0.502074   
O98      O      0.240600000000     0.528370000000     0.822860000000    -0.874174   
O99      O      0.241010000000     0.558010000000     0.882930000000    -0.499038   
O100     O      0.216450000000     0.505610000000     0.884070000000    -0.502375   
O101     O      0.242170000000     0.506920000000     0.759540000000    -0.497528   
O102     O      0.180620000000     0.498720000000     0.822320000000    -0.499207   
O103     O      0.266310000000     0.592310000000     0.833310000000    -0.49824    
O104     O      0.258660000000     0.569750000000     0.769970000000    -0.510943   
O105     O      0.258550000000     0.766420000000     0.490400000000    -0.510865   
O106     O      0.269320000000     0.853050000000     0.582900000000    -0.493833   
O107     O      0.207000000000     0.790620000000     0.480660000000    -0.493846   
O108     O      0.266210000000     0.829630000000     0.467790000000    -0.498467   
O109     O      0.242090000000     0.756260000000     0.553240000000    -0.4976     
O110     O      0.216410000000     0.880840000000     0.554510000000    -0.502137   
O111     O      0.240510000000     0.819490000000     0.531770000000    -0.874174   
O112     O      0.180530000000     0.819150000000     0.561470000000    -0.499088   
O113     O      0.179220000000     0.843610000000     0.509050000000    -0.502383   
O114     O      0.303770000000     0.817860000000     0.510260000000    -0.497692   
O115     O      0.240940000000     0.879410000000     0.502070000000    -0.499278   
O116     O      0.230250000000     0.793890000000     0.595730000000    -0.498285   
O117     O      0.293520000000     0.801490000000     0.573100000000    -0.510886   
O118     O      0.770220000000     0.801180000000     0.490330000000    -0.51088    
O119     O      0.856610000000     0.790620000000     0.582920000000    -0.493794   
O120     O      0.794430000000     0.852670000000     0.480550000000    -0.493784   
O121     O      0.833510000000     0.793410000000     0.467790000000    -0.498632   
O122     O      0.759880000000     0.817810000000     0.553150000000    -0.497766   
O123     O      0.884420000000     0.843440000000     0.554500000000    -0.502344   
O124     O      0.823170000000     0.819290000000     0.531720000000    -0.874116   
O125     O      0.822690000000     0.879370000000     0.561350000000    -0.499017   
O126     O      0.847320000000     0.880490000000     0.508960000000    -0.502394   
O127     O      0.821640000000     0.755970000000     0.510280000000    -0.497543   
O128     O      0.883200000000     0.818730000000     0.502100000000    -0.499044   
O129     O      0.797390000000     0.829760000000     0.595650000000    -0.498351   
O130     O      0.805110000000     0.766420000000     0.573090000000    -0.510998   
O131     O      0.490480000000     0.766570000000     0.804960000000    -0.510791   
O132     O      0.582980000000     0.852950000000     0.794290000000    -0.494011   
O133     O      0.480700000000     0.790830000000     0.856500000000    -0.494019   
O134     O      0.467890000000     0.829850000000     0.797320000000    -0.498356   
O135     O      0.553310000000     0.756250000000     0.821450000000    -0.497553   
O136     O      0.554580000000     0.880830000000     0.847220000000    -0.502344   
O137     O      0.531840000000     0.819540000000     0.823050000000    -0.874224   
O138     O      0.561510000000     0.819120000000     0.883040000000    -0.498994   
O139     O      0.509100000000     0.843740000000     0.884340000000    -0.502234   
O140     O      0.510380000000     0.817940000000     0.759770000000    -0.49756    
O141     O      0.502180000000     0.879550000000     0.822640000000    -0.499396   
O142     O      0.595800000000     0.793770000000     0.833320000000    -0.498334   
O143     O      0.573210000000     0.801410000000     0.770050000000    -0.510958   
O144     O      0.770220000000     0.569490000000     0.804830000000    -0.510942   
O145     O      0.856780000000     0.477030000000     0.793870000000    -0.493874   
O146     O      0.794400000000     0.579260000000     0.856380000000    -0.493928   
O147     O      0.833470000000     0.592110000000     0.797200000000    -0.498217   
O148     O      0.760000000000     0.506650000000     0.821190000000    -0.497537   
O149     O      0.884550000000     0.505400000000     0.846850000000    -0.502207   
O150     O      0.823240000000     0.528140000000     0.822790000000    -0.874132   
O151     O      0.822830000000     0.498430000000     0.882710000000    -0.499109   
O152     O      0.847330000000     0.550860000000     0.884120000000    -0.502394   
O153     O      0.821660000000     0.549630000000     0.759560000000    -0.497517   
O154     O      0.883210000000     0.557840000000     0.822410000000    -0.498962   
O155     O      0.797580000000     0.464160000000     0.832920000000    -0.498241   
O156     O      0.805230000000     0.486790000000     0.769710000000    -0.51096    


