data_structure

_audit_creation_method RASPA-1.0
_audit_creation_date 2023-6-4
_audit_author_name 'Poobodin Mano'

_cell_length_a    23.9147
_cell_length_b    24.0134
_cell_length_c    57.3691
_cell_angle_alpha 90
_cell_angle_beta  90
_cell_angle_gamma 120
_cell_volume      28531.7

_symmetry_cell_setting          triclinic
_symmetry_space_group_name_Hall 'P 1'
_symmetry_space_group_name_H-M  'P 1'
_symmetry_Int_Tables_number     1

_symmetry_equiv_pos_as_xyz 'x,y,z'

loop_
_atom_site_label
_atom_site_type_symbol
_atom_site_fract_x
_atom_site_fract_y
_atom_site_fract_z
_atom_site_charge
C1       C      0.550890000000     0.713340000000     0.323050000000     0.529791   
C2       C      0.554210000000     0.721170000000     0.260330000000     0.530194   
C3       C      0.543950000000     0.879420000000     0.259200000000     0.525829   
C4       C      0.387010000000     0.723670000000     0.324700000000     0.527259   
C5       C      0.381440000000     0.708780000000     0.262000000000     0.520933   
C6       C      0.558810000000     0.888280000000     0.322030000000     0.526525   
C7       C      0.782430000000     0.501050000000     0.074650000000     0.523969   
C8       C      0.770890000000     0.494220000000     0.011770000000     0.523043   
C9       C      0.770160000000     0.325720000000     0.010820000000     0.525418   
C10      C      0.942220000000     0.483160000000     0.072680000000     0.528687   
C11      C      0.937440000000     0.492460000000     0.010050000000     0.530589   
C12      C      0.764060000000     0.326030000000     0.073560000000     0.525309   
C13      C      0.055410000000     0.503960000000     0.965820000000    -0.14373    
C14      C      0.338930000000     0.746620000000     0.356850000000     0.0802377  
C15      C      0.311220000000     0.638850000000     0.348810000000     0.0819824  
C16      C      0.296350000000     0.726370000000     0.375690000000    -0.0983059  
C17      C      0.166280000000     0.654150000000     0.402100000000    -0.0379269  
C18      C      0.121250000000     0.630710000000     0.920210000000    -0.0314665  
C19      C      0.215500000000     0.638660000000     0.401070000000    -0.00719265 
C20      C      0.269310000000     0.617140000000     0.367860000000    -0.0986651  
C21      C      0.125300000000     0.592270000000     0.937940000000    -0.0166502  
C22      C      0.047010000000     0.599360000000     0.965310000000    -0.110097   
C23      C      0.175890000000     0.578310000000     0.937070000000    -0.0315422  
C24      C      0.999470000000     0.572430000000     0.982410000000     0.0854234  
C25      C      0.006730000000     0.477030000000     0.982870000000     0.189908   
C26      C      0.220080000000     0.600690000000     0.918690000000    -0.038009   
C27      C      0.261240000000     0.661090000000     0.381350000000     0.0528101  
C28      C      0.075940000000     0.565330000000     0.956810000000     0.0724244  
C29      C      0.047990000000     0.486830000000     0.120390000000    -0.141873   
C30      C      0.300850000000     0.714680000000     0.239510000000     0.0775827  
C31      C      0.329800000000     0.635930000000     0.230590000000     0.0755266  
C32      C      0.256650000000     0.693290000000     0.221100000000    -0.0981931  
C33      C      0.204170000000     0.660480000000     0.170610000000    -0.0381258  
C34      C      0.161430000000     0.638010000000     0.151750000000    -0.0319861  
C35      C      0.201420000000     0.617860000000     0.187890000000    -0.007138   
C36      C      0.284980000000     0.612410000000     0.212400000000    -0.0975471  
C37      C      0.114010000000     0.572490000000     0.149970000000    -0.0160146  
C38      C      0.048780000000     0.587050000000     0.118570000000    -0.109085   
C39      C      0.110790000000     0.530230000000     0.167650000000    -0.0317843  
C40      C      0.008540000000     0.564450000000     0.099130000000     0.0859433  
C41      C      0.008030000000     0.465090000000     0.100550000000     0.188699   
C42      C      0.154430000000     0.552560000000     0.186250000000    -0.0380807  
C43      C      0.248120000000     0.641380000000     0.207430000000     0.0503838  
C44      C      0.069090000000     0.548250000000     0.129580000000     0.0711322  
C45      C      0.547830000000     0.953500000000     0.202400000000    -0.144965   
C46      C      0.702560000000     0.285580000000     0.108410000000     0.078812   
C47      C      0.760990000000     0.237610000000     0.093430000000     0.0805003  
C48      C      0.680500000000     0.242390000000     0.127060000000    -0.0970088  
C49      C      0.676910000000     0.168370000000     0.171210000000    -0.0379052  
C50      C      0.655260000000     0.123740000000     0.189440000000    -0.0319075  
C51      C      0.674550000000     0.148120000000     0.148070000000    -0.00713833 
C52      C      0.739160000000     0.193220000000     0.111660000000    -0.0981243  
C53      C      0.630000000000     0.058010000000     0.184810000000    -0.0173516  
C54      C      0.645370000000     0.020600000000     0.223670000000    -0.11077    
C55      C      0.627180000000     0.037770000000     0.161650000000    -0.0321258  
C56      C      0.623810000000     0.974600000000     0.241320000000     0.0830529  
C57      C      0.527520000000     0.906900000000     0.220090000000     0.186525   
C58      C      0.649550000000     0.082410000000     0.143480000000    -0.0381495  
C59      C      0.698460000000     0.195300000000     0.128730000000     0.0517091  
C60      C      0.607040000000     0.010520000000     0.204050000000     0.0717869  
C61      C      0.656240000000     0.995230000000     0.370040000000    -0.142275   
C62      C      0.680740000000     0.247150000000     0.988840000000     0.0798278  
C63      C      0.787180000000     0.272160000000     0.979080000000     0.0793592  
C64      C      0.655670000000     0.202260000000     0.970710000000    -0.0980786  
C65      C      0.632090000000     0.145910000000     0.920450000000    -0.0376618  
C66      C      0.612300000000     0.103390000000     0.901560000000    -0.0318431  
C67      C      0.672250000000     0.143420000000     0.937750000000    -0.00723905 
C68      C      0.763680000000     0.226800000000     0.961170000000    -0.098563   
C69      C      0.631380000000     0.056710000000     0.399780000000    -0.0160097  
C70      C      0.554510000000     0.992080000000     0.367550000000    -0.109108   
C71      C      0.669790000000     0.053100000000     0.417670000000    -0.0318181  
C72      C      0.539300000000     0.952720000000     0.347960000000     0.0864853  
C73      C      0.640600000000     0.956470000000     0.350010000000     0.189154   
C74      C      0.690500000000     0.096360000000     0.936290000000    -0.0379498  
C75      C      0.697340000000     0.191350000000     0.956820000000     0.051927   
C76      C      0.613320000000     0.013460000000     0.379060000000     0.0715192  
C77      C      0.560010000000     0.613910000000     0.370230000000    -0.142584   
C78      C      0.782280000000     0.583520000000     0.989780000000     0.0801304  
C79      C      0.700220000000     0.477850000000     0.979990000000     0.0786783  
C80      C      0.763100000000     0.608890000000     0.971550000000    -0.0976805  
C81      C      0.732340000000     0.634530000000     0.921450000000    -0.0377851  
C82      C      0.710670000000     0.655670000000     0.902590000000    -0.0318178  
C83      C      0.688650000000     0.593580000000     0.938340000000    -0.00693096 
C84      C      0.678980000000     0.501730000000     0.961940000000    -0.097216   
C85      C      0.644920000000     0.637110000000     0.400440000000    -0.0159976  
C86      C      0.658470000000     0.715540000000     0.368610000000    -0.10867    
C87      C      0.601830000000     0.597870000000     0.917920000000    -0.0317468  
C88      C      0.634790000000     0.731770000000     0.349060000000     0.0866132  
C89      C      0.537500000000     0.630530000000     0.350270000000     0.189544   
C90      C      0.623330000000     0.575860000000     0.936500000000    -0.0380736  
C91      C      0.710600000000     0.567860000000     0.957530000000     0.0515393  
C92      C      0.620710000000     0.656310000000     0.379690000000     0.0715582  
C93      C      0.629130000000     0.712840000000     0.205190000000    -0.144592   
C94      C      0.806200000000     0.562680000000     0.109530000000     0.0785793  
C95      C      0.697890000000     0.500740000000     0.096560000000     0.0798512  
C96      C      0.786220000000     0.583540000000     0.128900000000    -0.0969032  
C97      C      0.733350000000     0.649300000000     0.159850000000    -0.0375747  
C98      C      0.710560000000     0.671080000000     0.178100000000    -0.0319904  
C99      C      0.698180000000     0.585000000000     0.152380000000    -0.0068334  
C100     C      0.676310000000     0.520730000000     0.115670000000    -0.0976763  
C101     C      0.651990000000     0.629130000000     0.189300000000    -0.016634   
C102     C      0.594180000000     0.615940000000     0.227210000000    -0.11012    
C103     C      0.617550000000     0.564500000000     0.182170000000    -0.0319079  
C104     C      0.568660000000     0.639040000000     0.243980000000     0.0837057  
C105     C      0.601080000000     0.734320000000     0.221840000000     0.189628   
C106     C      0.640410000000     0.542690000000     0.163950000000    -0.0376074  
C107     C      0.720560000000     0.562610000000     0.132160000000     0.0512685  
C108     C      0.625700000000     0.653290000000     0.207690000000     0.0718904  
C109     C      0.550890000000     0.713340000000     0.823050000000     0.529775   
C110     C      0.554210000000     0.721170000000     0.760330000000     0.530183   
C111     C      0.543950000000     0.879420000000     0.759200000000     0.525819   
C112     C      0.387010000000     0.723670000000     0.824700000000     0.527243   
C113     C      0.381440000000     0.708780000000     0.762000000000     0.52085    
C114     C      0.558810000000     0.888280000000     0.822030000000     0.526902   
C115     C      0.782430000000     0.501050000000     0.574650000000     0.523962   
C116     C      0.770890000000     0.494220000000     0.511760000000     0.522768   
C117     C      0.770160000000     0.325720000000     0.510820000000     0.525451   
C118     C      0.942220000000     0.483160000000     0.572680000000     0.528686   
C119     C      0.937440000000     0.492460000000     0.510050000000     0.530627   
C120     C      0.764060000000     0.326030000000     0.573560000000     0.525309   
C121     C      0.055410000000     0.503960000000     0.465820000000    -0.143738   
C122     C      0.338930000000     0.746620000000     0.856850000000     0.0802385  
C123     C      0.311220000000     0.638850000000     0.848820000000     0.0820135  
C124     C      0.296350000000     0.726370000000     0.875690000000    -0.0983166  
C125     C      0.166280000000     0.654150000000     0.902100000000    -0.037913   
C126     C      0.121250000000     0.630710000000     0.420220000000    -0.0314716  
C127     C      0.215500000000     0.638660000000     0.901070000000    -0.00720387 
C128     C      0.269310000000     0.617140000000     0.867860000000    -0.0987222  
C129     C      0.125300000000     0.592270000000     0.437940000000    -0.0166387  
C130     C      0.047010000000     0.599360000000     0.465310000000    -0.1101     
C131     C      0.175890000000     0.578310000000     0.437070000000    -0.0315467  
C132     C      0.999470000000     0.572430000000     0.482410000000     0.0854202  
C133     C      0.006730000000     0.477030000000     0.482870000000     0.189932   
C134     C      0.220080000000     0.600690000000     0.418690000000    -0.038013   
C135     C      0.261240000000     0.661090000000     0.881350000000     0.052833   
C136     C      0.075940000000     0.565330000000     0.456810000000     0.0724219  
C137     C      0.047990000000     0.486830000000     0.620390000000    -0.141873   
C138     C      0.300850000000     0.714680000000     0.739510000000     0.0775706  
C139     C      0.329800000000     0.635930000000     0.730590000000     0.0755038  
C140     C      0.256650000000     0.693290000000     0.721100000000    -0.0981762  
C141     C      0.204170000000     0.660480000000     0.670610000000    -0.0381338  
C142     C      0.161430000000     0.638010000000     0.651750000000    -0.031984   
C143     C      0.201420000000     0.617860000000     0.687890000000    -0.00712282 
C144     C      0.284980000000     0.612410000000     0.712400000000    -0.0974838  
C145     C      0.114010000000     0.572490000000     0.649970000000    -0.0160163  
C146     C      0.048780000000     0.587050000000     0.618570000000    -0.109085   
C147     C      0.110790000000     0.530230000000     0.667650000000    -0.0317808  
C148     C      0.008540000000     0.564450000000     0.599130000000     0.0859443  
C149     C      0.008030000000     0.465090000000     0.600550000000     0.1887     
C150     C      0.154430000000     0.552560000000     0.686250000000    -0.0380881  
C151     C      0.248120000000     0.641380000000     0.707430000000     0.0503536  
C152     C      0.069090000000     0.548250000000     0.629580000000     0.0711335  
C153     C      0.547830000000     0.953500000000     0.702400000000    -0.144966   
C154     C      0.702560000000     0.285580000000     0.608410000000     0.0788015  
C155     C      0.760990000000     0.237610000000     0.593430000000     0.080501   
C156     C      0.680500000000     0.242390000000     0.627060000000    -0.0970019  
C157     C      0.676910000000     0.168370000000     0.671210000000    -0.0379058  
C158     C      0.655260000000     0.123740000000     0.689440000000    -0.0319072  
C159     C      0.674550000000     0.148120000000     0.648070000000    -0.00713671 
C160     C      0.739160000000     0.193220000000     0.611660000000    -0.0981218  
C161     C      0.630000000000     0.058010000000     0.684810000000    -0.0173518  
C162     C      0.645370000000     0.020600000000     0.723670000000    -0.11077    
C163     C      0.627180000000     0.037770000000     0.661650000000    -0.0321249  
C164     C      0.623810000000     0.974600000000     0.741320000000     0.0830511  
C165     C      0.527520000000     0.906900000000     0.720090000000     0.186525   
C166     C      0.649550000000     0.082410000000     0.643480000000    -0.0381497  
C167     C      0.698460000000     0.195300000000     0.628730000000     0.0517069  
C168     C      0.607040000000     0.010520000000     0.704050000000     0.0717868  
C169     C      0.656240000000     0.995230000000     0.870040000000    -0.142274   
C170     C      0.680740000000     0.247150000000     0.488840000000     0.0798221  
C171     C      0.787180000000     0.272160000000     0.479080000000     0.0793536  
C172     C      0.655670000000     0.202260000000     0.470710000000    -0.0980794  
C173     C      0.632090000000     0.145910000000     0.420450000000    -0.0376743  
C174     C      0.612300000000     0.103390000000     0.401560000000    -0.0318197  
C175     C      0.672250000000     0.143420000000     0.437750000000    -0.00723169 
C176     C      0.763680000000     0.226800000000     0.461170000000    -0.0985622  
C177     C      0.631380000000     0.056710000000     0.899790000000    -0.0159682  
C178     C      0.554510000000     0.992080000000     0.867560000000    -0.10911    
C179     C      0.669790000000     0.053100000000     0.917670000000    -0.0318361  
C180     C      0.539300000000     0.952720000000     0.847960000000     0.0864415  
C181     C      0.640600000000     0.956470000000     0.850010000000     0.189137   
C182     C      0.690500000000     0.096360000000     0.436290000000    -0.0379609  
C183     C      0.697340000000     0.191350000000     0.456820000000     0.0519219  
C184     C      0.613320000000     0.013460000000     0.879060000000     0.0715195  
C185     C      0.560010000000     0.613910000000     0.870230000000    -0.142565   
C186     C      0.782280000000     0.583520000000     0.489780000000     0.0800916  
C187     C      0.700220000000     0.477850000000     0.479990000000     0.0787335  
C188     C      0.763100000000     0.608890000000     0.471550000000    -0.0977072  
C189     C      0.732340000000     0.634530000000     0.421450000000    -0.037783   
C190     C      0.710670000000     0.655670000000     0.402590000000    -0.031819   
C191     C      0.688650000000     0.593580000000     0.438340000000    -0.00693737 
C192     C      0.678980000000     0.501730000000     0.461940000000    -0.0972658  
C193     C      0.644920000000     0.637110000000     0.900440000000    -0.0159951  
C194     C      0.658470000000     0.715540000000     0.868610000000    -0.108664   
C195     C      0.601830000000     0.597870000000     0.417920000000    -0.0317478  
C196     C      0.634790000000     0.731770000000     0.849060000000     0.08661    
C197     C      0.537500000000     0.630530000000     0.850270000000     0.189494   
C198     C      0.623330000000     0.575860000000     0.436500000000    -0.0380737  
C199     C      0.710600000000     0.567860000000     0.457540000000     0.0515886  
C200     C      0.620710000000     0.656310000000     0.879690000000     0.0715512  
C201     C      0.629130000000     0.712840000000     0.705190000000    -0.144579   
C202     C      0.806200000000     0.562680000000     0.609530000000     0.0785788  
C203     C      0.697890000000     0.500740000000     0.596560000000     0.0798522  
C204     C      0.786220000000     0.583540000000     0.628900000000    -0.0969013  
C205     C      0.733350000000     0.649300000000     0.659850000000    -0.0375625  
C206     C      0.710560000000     0.671080000000     0.678100000000    -0.0320138  
C207     C      0.698180000000     0.585000000000     0.652380000000    -0.00684172 
C208     C      0.676310000000     0.520730000000     0.615670000000    -0.0976682  
C209     C      0.651990000000     0.629130000000     0.689290000000    -0.0165869  
C210     C      0.594180000000     0.615940000000     0.727210000000    -0.110108   
C211     C      0.617550000000     0.564500000000     0.682170000000    -0.0319326  
C212     C      0.568660000000     0.639040000000     0.743980000000     0.0837003  
C213     C      0.601080000000     0.734320000000     0.721840000000     0.189625   
C214     C      0.640410000000     0.542690000000     0.663950000000    -0.037596   
C215     C      0.720560000000     0.562610000000     0.632160000000     0.0512656  
C216     C      0.625700000000     0.653290000000     0.707690000000     0.0718606  
Fe1      Fe     0.576510000000     0.813870000000     0.291710000000     1.34866    
Fe2      Fe     0.455070000000     0.812140000000     0.292020000000     1.35551    
Fe3      Fe     0.456720000000     0.692670000000     0.293010000000     1.35234    
Fe4      Fe     0.747390000000     0.400890000000     0.042720000000     1.35137    
Fe5      Fe     0.864550000000     0.394040000000     0.041780000000     1.3482     
Fe6      Fe     0.871420000000     0.517460000000     0.042580000000     1.35328    
Fe7      Fe     0.576510000000     0.813870000000     0.791710000000     1.34867    
Fe8      Fe     0.455070000000     0.812140000000     0.792020000000     1.35542    
Fe9      Fe     0.456720000000     0.692670000000     0.793010000000     1.35208    
Fe10     Fe     0.747390000000     0.400890000000     0.542720000000     1.35138    
Fe11     Fe     0.864550000000     0.394040000000     0.541780000000     1.34821    
Fe12     Fe     0.871420000000     0.517460000000     0.542580000000     1.35324    
H1       H      0.315900000000     0.603310000000     0.338660000000     0.0203628  
H2       H      0.979970000000     0.601890000000     0.988680000000     0.0191376  
H3       H      0.258190000000     0.588770000000     0.918320000000     0.0379735  
H4       H      0.082430000000     0.641550000000     0.419950000000     0.0351396  
H5       H      0.061660000000     0.647340000000     0.959130000000     0.0549512  
H6       H      0.161620000000     0.682980000000     0.388540000000     0.0376903  
H7       H      0.074640000000     0.475160000000     0.958700000000     0.0644111  
H8       H      0.242540000000     0.566180000000     0.371760000000     0.0531017  
H9       H      0.291350000000     0.761610000000     0.385890000000     0.0533756  
H10      H      0.181570000000     0.550130000000     0.950620000000     0.0347591  
H11      H      0.365600000000     0.797700000000     0.353070000000     0.0220719  
H12      H      0.005280000000     0.388870000000     0.981820000000     0.0844628  
H13      H      0.941650000000     0.386050000000     0.997870000000     0.105711   
H14      H      0.357860000000     0.612520000000     0.233740000000     0.0219338  
H15      H      0.992890000000     0.596000000000     0.091730000000     0.0193794  
H16      H      0.151010000000     0.518900000000     0.199520000000     0.0375292  
H17      H      0.166670000000     0.672000000000     0.138350000000     0.0346831  
H18      H      0.062730000000     0.634510000000     0.125140000000     0.054562   
H19      H      0.240460000000     0.710990000000     0.171410000000     0.0365905  
H20      H      0.065510000000     0.456880000000     0.127780000000     0.0642522  
H21      H      0.279940000000     0.572420000000     0.202040000000     0.0524071  
H22      H      0.228780000000     0.716740000000     0.217750000000     0.0527682  
H23      H      0.074290000000     0.479800000000     0.167260000000     0.0352521  
H24      H      0.305920000000     0.754900000000     0.249750000000     0.0210379  
H25      H      0.012870000000     0.380210000000     0.098740000000     0.0854649  
H26      H      0.977980000000     0.393950000000     0.074020000000     0.0940556  
H27      H      0.792670000000     0.234470000000     0.080630000000     0.0201061  
H28      H      0.654720000000     0.985460000000     0.256470000000     0.0196341  
H29      H      0.646780000000     0.065470000000     0.125780000000     0.0370501  
H30      H      0.657700000000     0.140510000000     0.207150000000     0.0358369  
H31      H      0.692090000000     0.063770000000     0.225340000000     0.0556595  
H32      H      0.696370000000     0.218810000000     0.175240000000     0.0380388  
H33      H      0.518310000000     0.944230000000     0.186950000000     0.0649691  
H34      H      0.754640000000     0.157880000000     0.112510000000     0.0524129  
H35      H      0.648740000000     0.245220000000     0.139880000000     0.0529344  
H36      H      0.608460000000     0.987440000000     0.157620000000     0.0345596  
H37      H      0.687300000000     0.321150000000     0.107660000000     0.024564   
H38      H      0.446610000000     0.840800000000     0.200800000000     0.087598   
H39      H      0.461860000000     0.807380000000     0.225570000000     0.109988   
H40      H      0.838950000000     0.298680000000     0.981780000000     0.0175911  
H41      H      0.492100000000     0.935710000000     0.340210000000     0.0193423  
H42      H      0.720850000000     0.093040000000     0.949600000000     0.0371197  
H43      H      0.583640000000     0.108530000000     0.888040000000     0.0349394  
H44      H      0.519370000000     0.004310000000     0.373910000000     0.054842   
H45      H      0.617810000000     0.182180000000     0.921140000000     0.0377543  
H46      H      0.703690000000     0.014060000000     0.377750000000     0.0642815  
H47      H      0.797370000000     0.220020000000     0.950610000000     0.0525444  
H48      H      0.603990000000     0.175580000000     0.967800000000     0.0528783  
H49      H      0.684190000000     0.016940000000     0.417310000000     0.0354145  
H50      H      0.646970000000     0.253950000000     0.999370000000     0.0204194  
H51      H      0.732640000000     0.965640000000     0.348610000000     0.0852398  
H52      H      0.685650000000     0.930680000000     0.323530000000     0.0934254  
H53      H      0.674620000000     0.426250000000     0.982720000000     0.0227986  
H54      H      0.664970000000     0.779210000000     0.341640000000     0.0196212  
H55      H      0.588860000000     0.545040000000     0.949500000000     0.037368   
H56      H      0.745270000000     0.685000000000     0.389390000000     0.0348621  
H57      H      0.705630000000     0.750180000000     0.375280000000     0.054784   
H58      H      0.782950000000     0.648540000000     0.922430000000     0.0377551  
H59      H      0.531320000000     0.566170000000     0.377530000000     0.0644542  
H60      H      0.638500000000     0.468500000000     0.951300000000     0.0528432  
H61      H      0.788580000000     0.660380000000     0.968650000000     0.05275    
H62      H      0.551220000000     0.583830000000     0.417280000000     0.0354094  
H63      H      0.822920000000     0.616910000000     0.000350000000     0.0205503  
H64      H      0.455270000000     0.538600000000     0.347930000000     0.085159   
H65      H      0.468090000000     0.587000000000     0.323240000000     0.0914453  
H66      H      0.661910000000     0.468380000000     0.084230000000     0.0207748  
H67      H      0.546800000000     0.609120000000     0.259200000000     0.019092   
H68      H      0.612590000000     0.492630000000     0.158870000000     0.0367301  
H69      H      0.738670000000     0.720980000000     0.183350000000     0.0352989  
H70      H      0.590380000000     0.569510000000     0.229850000000     0.0551047  
H71      H      0.777750000000     0.683320000000     0.151210000000     0.0365807  
H72      H      0.650100000000     0.740960000000     0.189530000000     0.0651474  
H73      H      0.625220000000     0.504140000000     0.117250000000     0.0522403  
H74      H      0.822040000000     0.615310000000     0.141350000000     0.0524213  
H75      H      0.571990000000     0.531000000000     0.190250000000     0.0348508  
H76      H      0.857400000000     0.579760000000     0.107720000000     0.023235   
H77      H      0.618180000000     0.813990000000     0.201400000000     0.0882736  
H78      H      0.566470000000     0.799890000000     0.225220000000     0.110317   
H79      H      0.315900000000     0.603310000000     0.838660000000     0.0203663  
H80      H      0.979970000000     0.601890000000     0.488680000000     0.019124   
H81      H      0.258190000000     0.588770000000     0.418320000000     0.0379729  
H82      H      0.082430000000     0.641550000000     0.919950000000     0.0351389  
H83      H      0.061660000000     0.647340000000     0.459130000000     0.0549483  
H84      H      0.161620000000     0.682980000000     0.888540000000     0.0376876  
H85      H      0.074640000000     0.475160000000     0.458700000000     0.0644127  
H86      H      0.242540000000     0.566180000000     0.871760000000     0.0531157  
H87      H      0.291350000000     0.761610000000     0.885890000000     0.0533795  
H88      H      0.181570000000     0.550130000000     0.450620000000     0.0347558  
H89      H      0.365600000000     0.797700000000     0.853070000000     0.022074   
H90      H      0.005280000000     0.388870000000     0.481820000000     0.0844944  
H91      H      0.941650000000     0.386050000000     0.497870000000     0.105647   
H92      H      0.357860000000     0.612520000000     0.733740000000     0.0219488  
H93      H      0.992890000000     0.596000000000     0.591730000000     0.019381   
H94      H      0.151010000000     0.518900000000     0.699520000000     0.0375316  
H95      H      0.166670000000     0.672000000000     0.638350000000     0.034683   
H96      H      0.062730000000     0.634510000000     0.625140000000     0.054563   
H97      H      0.240460000000     0.710990000000     0.671400000000     0.0365939  
H98      H      0.065510000000     0.456880000000     0.627780000000     0.0642532  
H99      H      0.279940000000     0.572420000000     0.702030000000     0.0523726  
H100     H      0.228780000000     0.716740000000     0.717750000000     0.0527652  
H101     H      0.074290000000     0.479800000000     0.667260000000     0.0352513  
H102     H      0.305920000000     0.754900000000     0.749750000000     0.0210425  
H103     H      0.012870000000     0.380210000000     0.598740000000     0.0854672  
H104     H      0.977980000000     0.393950000000     0.574020000000     0.0940587  
H105     H      0.792670000000     0.234470000000     0.580630000000     0.0201097  
H106     H      0.654720000000     0.985460000000     0.756470000000     0.0196327  
H107     H      0.646780000000     0.065470000000     0.625780000000     0.0370528  
H108     H      0.657700000000     0.140510000000     0.707150000000     0.0358364  
H109     H      0.692090000000     0.063770000000     0.725340000000     0.0556591  
H110     H      0.696370000000     0.218810000000     0.675240000000     0.0380388  
H111     H      0.518310000000     0.944230000000     0.686950000000     0.0649698  
H112     H      0.754640000000     0.157880000000     0.612510000000     0.0524145  
H113     H      0.648740000000     0.245220000000     0.639880000000     0.0529336  
H114     H      0.608460000000     0.987440000000     0.657620000000     0.0345608  
H115     H      0.687300000000     0.321150000000     0.607650000000     0.024577   
H116     H      0.446610000000     0.840800000000     0.700800000000     0.0875994  
H117     H      0.461860000000     0.807380000000     0.725570000000     0.109993   
H118     H      0.838950000000     0.298680000000     0.481780000000     0.0175876  
H119     H      0.492100000000     0.935710000000     0.840210000000     0.0193691  
H120     H      0.720850000000     0.093040000000     0.449600000000     0.0371187  
H121     H      0.583640000000     0.108530000000     0.388040000000     0.034934   
H122     H      0.519370000000     0.004310000000     0.873910000000     0.054856   
H123     H      0.617810000000     0.182180000000     0.421140000000     0.0377564  
H124     H      0.703690000000     0.014060000000     0.877750000000     0.0642807  
H125     H      0.797370000000     0.220020000000     0.450610000000     0.0525427  
H126     H      0.603990000000     0.175580000000     0.467800000000     0.0528738  
H127     H      0.684190000000     0.016940000000     0.917310000000     0.0354203  
H128     H      0.646970000000     0.253950000000     0.499370000000     0.020407   
H129     H      0.732640000000     0.965640000000     0.848610000000     0.0852395  
H130     H      0.685650000000     0.930680000000     0.823530000000     0.0934251  
H131     H      0.674620000000     0.426250000000     0.482720000000     0.022765   
H132     H      0.664970000000     0.779210000000     0.841640000000     0.0196234  
H133     H      0.588860000000     0.545040000000     0.449500000000     0.0373628  
H134     H      0.745270000000     0.685000000000     0.889390000000     0.0348626  
H135     H      0.705630000000     0.750180000000     0.875280000000     0.0547836  
H136     H      0.782950000000     0.648540000000     0.422430000000     0.037753   
H137     H      0.531320000000     0.566170000000     0.877530000000     0.0644477  
H138     H      0.638500000000     0.468500000000     0.451300000000     0.0528536  
H139     H      0.788580000000     0.660380000000     0.468650000000     0.0527492  
H140     H      0.551220000000     0.583830000000     0.917280000000     0.0354109  
H141     H      0.822920000000     0.616910000000     0.500350000000     0.0205766  
H142     H      0.455270000000     0.538600000000     0.847930000000     0.0851211  
H143     H      0.468090000000     0.587000000000     0.823240000000     0.091541   
H144     H      0.661910000000     0.468380000000     0.584230000000     0.0207807  
H145     H      0.546800000000     0.609120000000     0.759200000000     0.0190932  
H146     H      0.612590000000     0.492630000000     0.658870000000     0.0367253  
H147     H      0.738670000000     0.720980000000     0.683350000000     0.0353047  
H148     H      0.590380000000     0.569510000000     0.729850000000     0.0551002  
H149     H      0.777750000000     0.683320000000     0.651210000000     0.0365789  
H150     H      0.650100000000     0.740960000000     0.689530000000     0.0651445  
H151     H      0.625220000000     0.504140000000     0.617260000000     0.0522386  
H152     H      0.822040000000     0.615310000000     0.641350000000     0.0524212  
H153     H      0.571990000000     0.531000000000     0.690250000000     0.034857   
H154     H      0.857400000000     0.579760000000     0.607720000000     0.0232357  
H155     H      0.618180000000     0.813990000000     0.701400000000     0.0882743  
H156     H      0.566470000000     0.799890000000     0.725220000000     0.110319   
N1       N      0.980460000000     0.512790000000     0.991760000000    -0.233284   
N2       N      0.345790000000     0.703100000000     0.343370000000    -0.216722   
N3       N      0.983840000000     0.414160000000     0.988570000000    -0.2214     
N4       N      0.986540000000     0.503580000000     0.090510000000    -0.232877   
N5       N      0.337370000000     0.686410000000     0.244150000000    -0.217328   
N6       N      0.996840000000     0.408760000000     0.090690000000    -0.21806    
N7       N      0.564620000000     0.919310000000     0.240100000000    -0.235241   
N8       N      0.742480000000     0.283160000000     0.091720000000    -0.216192   
N9       N      0.474270000000     0.848550000000     0.215840000000    -0.221338   
N10      N      0.580520000000     0.932970000000     0.339680000000    -0.232939   
N11      N      0.746040000000     0.281860000000     0.992980000000    -0.216971   
N12      N      0.688040000000     0.948270000000     0.340310000000    -0.218359   
N13      N      0.574050000000     0.691080000000     0.340470000000    -0.233641   
N14      N      0.751150000000     0.518460000000     0.993940000000    -0.215568   
N15      N      0.482530000000     0.583620000000     0.340060000000    -0.218141   
N16      N      0.574000000000     0.698580000000     0.241910000000    -0.23482    
N17      N      0.762330000000     0.521650000000     0.093480000000    -0.216173   
N18      N      0.596550000000     0.787220000000     0.216440000000    -0.220578   
N19      N      0.980460000000     0.512790000000     0.491760000000    -0.233312   
N20      N      0.345790000000     0.703100000000     0.843370000000    -0.216722   
N21      N      0.983840000000     0.414160000000     0.488560000000    -0.221407   
N22      N      0.986540000000     0.503580000000     0.590510000000    -0.232876   
N23      N      0.337370000000     0.686410000000     0.744150000000    -0.2173     
N24      N      0.996840000000     0.408760000000     0.590690000000    -0.21806    
N25      N      0.564620000000     0.919310000000     0.740100000000    -0.23524    
N26      N      0.742480000000     0.283160000000     0.591720000000    -0.21619    
N27      N      0.474270000000     0.848550000000     0.715840000000    -0.221339   
N28      N      0.580520000000     0.932970000000     0.839670000000    -0.233039   
N29      N      0.746040000000     0.281860000000     0.492980000000    -0.216991   
N30      N      0.688040000000     0.948270000000     0.840310000000    -0.218353   
N31      N      0.574050000000     0.691080000000     0.840470000000    -0.233627   
N32      N      0.751150000000     0.518460000000     0.493930000000    -0.215577   
N33      N      0.482530000000     0.583620000000     0.840050000000    -0.218159   
N34      N      0.574000000000     0.698580000000     0.741910000000    -0.234816   
N35      N      0.762330000000     0.521650000000     0.593480000000    -0.216171   
N36      N      0.596550000000     0.787220000000     0.716440000000    -0.220577   
O1       O      0.516350000000     0.683080000000     0.275680000000    -0.50267    
O2       O      0.422400000000     0.782720000000     0.320680000000    -0.504538   
O3       O      0.578330000000     0.780490000000     0.263620000000    -0.509827   
O4       O      0.589080000000     0.755890000000     0.308870000000    -0.494955   
O5       O      0.418950000000     0.687000000000     0.265090000000    -0.508408   
O6       O      0.515890000000     0.883840000000     0.307950000000    -0.494427   
O7       O      0.496040000000     0.772730000000     0.292300000000    -0.873405   
O8       O      0.484840000000     0.843920000000     0.263240000000    -0.509292   
O9       O      0.583730000000     0.881860000000     0.274310000000    -0.500078   
O10      O      0.491430000000     0.692190000000     0.320890000000    -0.505724   
O11      O      0.580050000000     0.850210000000     0.319670000000    -0.502598   
O12      O      0.383930000000     0.750360000000     0.276170000000    -0.497902   
O13      O      0.388180000000     0.683660000000     0.310590000000    -0.496938   
O14      O      0.813020000000     0.531380000000     0.026270000000    -0.495552   
O15      O      0.901710000000     0.424630000000     0.069910000000    -0.503589   
O16      O      0.745460000000     0.434500000000     0.014680000000    -0.502092   
O17      O      0.742100000000     0.462860000000     0.059910000000    -0.497778   
O18      O      0.904390000000     0.518960000000     0.014030000000    -0.504162   
O19      O      0.802710000000     0.325520000000     0.058610000000    -0.498844   
O20      O      0.827780000000     0.437420000000     0.042330000000    -0.872239   
O21      O      0.830070000000     0.360350000000     0.013660000000    -0.51037    
O22      O      0.732870000000     0.329870000000     0.025510000000    -0.495559   
O23      O      0.841430000000     0.521230000000     0.071210000000    -0.502022   
O24      O      0.743860000000     0.364920000000     0.070850000000    -0.50246    
O25      O      0.935180000000     0.452160000000     0.024740000000    -0.50266    
O26      O      0.940700000000     0.523500000000     0.058850000000    -0.497254   
O27      O      0.516350000000     0.683080000000     0.775680000000    -0.502644   
O28      O      0.422400000000     0.782720000000     0.820680000000    -0.504509   
O29      O      0.578330000000     0.780490000000     0.763620000000    -0.509824   
O30      O      0.589080000000     0.755890000000     0.808870000000    -0.494943   
O31      O      0.418950000000     0.687000000000     0.765080000000    -0.508204   
O32      O      0.515890000000     0.883840000000     0.807960000000    -0.494532   
O33      O      0.496040000000     0.772730000000     0.792300000000    -0.873363   
O34      O      0.484840000000     0.843920000000     0.763240000000    -0.509291   
O35      O      0.583730000000     0.881860000000     0.774310000000    -0.500097   
O36      O      0.491430000000     0.692190000000     0.820890000000    -0.505682   
O37      O      0.580050000000     0.850210000000     0.819670000000    -0.502712   
O38      O      0.383930000000     0.750360000000     0.776170000000    -0.497885   
O39      O      0.388180000000     0.683660000000     0.810590000000    -0.496919   
O40      O      0.813020000000     0.531380000000     0.526270000000    -0.495335   
O41      O      0.901710000000     0.424630000000     0.569910000000    -0.503589   
O42      O      0.745460000000     0.434500000000     0.514680000000    -0.50197    
O43      O      0.742100000000     0.462860000000     0.559910000000    -0.497763   
O44      O      0.904390000000     0.518960000000     0.514030000000    -0.504161   
O45      O      0.802710000000     0.325520000000     0.558610000000    -0.498842   
O46      O      0.827780000000     0.437420000000     0.542330000000    -0.872232   
O47      O      0.830070000000     0.360350000000     0.513660000000    -0.510363   
O48      O      0.732870000000     0.329870000000     0.525510000000    -0.495562   
O49      O      0.841430000000     0.521230000000     0.571210000000    -0.502016   
O50      O      0.743860000000     0.364920000000     0.570850000000    -0.502461   
O51      O      0.935180000000     0.452160000000     0.524740000000    -0.502662   
O52      O      0.940700000000     0.523500000000     0.558850000000    -0.497245   


