data_structure

_audit_creation_method RASPA-1.0
_audit_creation_date 2023-6-4
_audit_author_name 'Poobodin Mano'

_cell_length_a    23.7185
_cell_length_b    23.3821
_cell_length_c    58.1925
_cell_angle_alpha 90
_cell_angle_beta  90
_cell_angle_gamma 120
_cell_volume      27949.1

_symmetry_cell_setting          triclinic
_symmetry_space_group_name_Hall 'P 1'
_symmetry_space_group_name_H-M  'P 1'
_symmetry_Int_Tables_number     1

_symmetry_equiv_pos_as_xyz 'x,y,z'

loop_
_atom_site_label
_atom_site_type_symbol
_atom_site_fract_x
_atom_site_fract_y
_atom_site_fract_z
_atom_site_charge
C1       C      0.403350000000     0.742610000000     0.319760000000     0.531577   
C2       C      0.407050000000     0.740970000000     0.257970000000     0.531144   
C3       C      0.578110000000     0.744180000000     0.257700000000     0.527527   
C4       C      0.582760000000     0.909040000000     0.321540000000     0.53849    
C5       C      0.573420000000     0.914410000000     0.260020000000     0.526984   
C6       C      0.566090000000     0.729650000000     0.319620000000     0.528401   
C7       C      0.797230000000     0.520620000000     0.007490000000     0.533184   
C8       C      0.806380000000     0.534230000000     0.069250000000     0.540311   
C9       C      0.970670000000     0.522320000000     0.070250000000     0.537365   
C10      C      0.804720000000     0.352130000000     0.009460000000     0.528943   
C11      C      0.793150000000     0.354830000000     0.071040000000     0.538739   
C12      C      0.969410000000     0.526650000000     0.008450000000     0.521904   
C13      C      0.263020000000     0.632260000000     0.356130000000    -0.120133   
C14      C      0.008970000000     0.584350000000     0.973120000000     0.0814303  
C15      C      0.057490000000     0.525840000000     0.988980000000     0.0820727  
C16      C      0.051210000000     0.603650000000     0.954360000000    -0.0928306  
C17      C      0.210820000000     0.632740000000     0.936660000000    -0.0345287  
C18      C      0.253650000000     0.654530000000     0.917960000000    -0.031132   
C19      C      0.143500000000     0.604880000000     0.933180000000    -0.00495891 
C20      C      0.101280000000     0.545190000000     0.970610000000    -0.0943745  
C21      C      0.229820000000     0.647790000000     0.395420000000    -0.0106118  
C22      C      0.329110000000     0.735390000000     0.375550000000    -0.102708   
C23      C      0.162400000000     0.618910000000     0.391940000000    -0.0309663  
C24      C      0.369830000000     0.758200000000     0.356380000000     0.0851844  
C25      C      0.304520000000     0.656200000000     0.336990000000     0.1719     
C26      C      0.119730000000     0.598080000000     0.410640000000    -0.0342365  
C27      C      0.098170000000     0.584270000000     0.952980000000     0.0534951  
C28      C      0.275060000000     0.671820000000     0.375570000000     0.0673083  
C29      C      0.073900000000     0.530270000000     0.118880000000    -0.120241   
C30      C      0.330030000000     0.754140000000     0.235670000000     0.0869556  
C31      C      0.357680000000     0.673230000000     0.225270000000     0.086099   
C32      C      0.288040000000     0.736980000000     0.216830000000    -0.0952522  
C33      C      0.177160000000     0.668980000000     0.182750000000    -0.032653   
C34      C      0.134270000000     0.647980000000     0.164070000000    -0.0308224  
C35      C      0.235300000000     0.666510000000     0.181800000000    -0.0051418  
C36      C      0.315240000000     0.653960000000     0.206600000000    -0.0948803  
C37      C      0.148090000000     0.623000000000     0.144290000000    -0.00978479 
C38      C      0.085240000000     0.637120000000     0.112590000000    -0.100085   
C39      C      0.206180000000     0.621230000000     0.143090000000    -0.0314035  
C40      C      0.043000000000     0.611310000000     0.093880000000     0.0918075  
C41      C      0.031250000000     0.505180000000     0.100130000000     0.175076   
C42      C      0.249680000000     0.643460000000     0.161500000000    -0.0329813  
C43      C      0.280060000000     0.686220000000     0.201960000000     0.0557956  
C44      C      0.101100000000     0.596410000000     0.125170000000     0.0693831  
C45      C      0.695170000000     0.255040000000     0.120210000000    -0.1185     
C46      C      0.662340000000     0.993550000000     0.237590000000     0.0832282  
C47      C      0.554980000000     0.970200000000     0.229240000000     0.0816854  
C48      C      0.686800000000     0.038250000000     0.219320000000    -0.0963635  
C49      C      0.705150000000     0.089300000000     0.168920000000    -0.0339409  
C50      C      0.726090000000     0.132040000000     0.150050000000    -0.0305287  
C51      C      0.669250000000     0.096930000000     0.186590000000    -0.00575868 
C52      C      0.578010000000     0.015700000000     0.211210000000    -0.0965848  
C53      C      0.712710000000     0.184290000000     0.148660000000    -0.00863702 
C54      C      0.790180000000     0.244330000000     0.116070000000    -0.0984994  
C55      C      0.678070000000     0.192580000000     0.166800000000    -0.0305611  
C56      C      0.807570000000     0.284650000000     0.096650000000     0.0913419  
C57      C      0.713740000000     0.295790000000     0.100710000000     0.174356   
C58      C      0.655950000000     0.148930000000     0.185410000000    -0.0339655  
C59      C      0.644460000000     0.049860000000     0.206010000000     0.0546105  
C60      C      0.733350000000     0.228900000000     0.128200000000     0.0679728  
C61      C      0.683080000000     0.009030000000     0.370250000000    -0.121291   
C62      C      0.717230000000     0.272770000000     0.986660000000     0.0837678  
C63      C      0.825360000000     0.298590000000     0.978540000000     0.0826027  
C64      C      0.693950000000     0.228740000000     0.968200000000    -0.0952642  
C65      C      0.651580000000     0.114400000000     0.935390000000    -0.0342412  
C66      C      0.629410000000     0.070990000000     0.916710000000    -0.0313243  
C67      C      0.713400000000     0.171910000000     0.934870000000    -0.00521592 
C68      C      0.803610000000     0.253920000000     0.960280000000    -0.0949378  
C69      C      0.669080000000     0.083400000000     0.397360000000    -0.0113286  
C70      C      0.589720000000     0.022720000000     0.366020000000    -0.105026   
C71      C      0.730740000000     0.140290000000     0.396750000000    -0.0312547  
C72      C      0.570750000000     0.981200000000     0.346910000000     0.0877314  
C73      C      0.662970000000     0.967060000000     0.351090000000     0.173441   
C74      C      0.752400000000     0.184440000000     0.415170000000    -0.0338096  
C75      C      0.737180000000     0.218590000000     0.954700000000     0.0539891  
C76      C      0.646490000000     0.037100000000     0.377780000000     0.0687215  
C77      C      0.777970000000     0.628340000000     0.965510000000    -0.119982   
C78      C      0.542990000000     0.656510000000     0.351240000000     0.0826843  
C79      C      0.652180000000     0.738010000000     0.342980000000     0.0876529  
C80      C      0.563640000000     0.634150000000     0.369930000000    -0.095559   
C81      C      0.649630000000     0.582070000000     0.394830000000    -0.035182   
C82      C      0.673220000000     0.562130000000     0.413360000000    -0.0307588  
C83      C      0.652480000000     0.643350000000     0.395280000000    -0.00539891 
C84      C      0.674260000000     0.717920000000     0.361860000000    -0.0937606  
C85      C      0.698900000000     0.602580000000     0.932940000000    -0.0100577  
C86      C      0.697920000000     0.515120000000     0.958470000000    -0.102183   
C87      C      0.700330000000     0.663570000000     0.933380000000    -0.0301975  
C88      C      0.723970000000     0.496460000000     0.976510000000     0.085807   
C89      C      0.803100000000     0.608560000000     0.983720000000     0.174443   
C90      C      0.678020000000     0.684020000000     0.914620000000    -0.0340215  
C91      C      0.629770000000     0.665370000000     0.375420000000     0.0550906  
C92      C      0.724930000000     0.581760000000     0.952620000000     0.0676494  
C93      C      0.801230000000     0.633750000000     0.117500000000    -0.120017   
C94      C      0.569060000000     0.656740000000     0.234110000000     0.0826883  
C95      C      0.650680000000     0.767110000000     0.226370000000     0.082042   
C96      C      0.589410000000     0.634330000000     0.215340000000    -0.095588   
C97      C      0.661480000000     0.594420000000     0.182000000000    -0.0332     
C98      C      0.683770000000     0.573780000000     0.163270000000    -0.0314167  
C99      C      0.665240000000     0.656520000000     0.181830000000    -0.00554448 
C100     C      0.673140000000     0.746310000000     0.207810000000    -0.0953834  
C101     C      0.711500000000     0.615280000000     0.144210000000    -0.00957169 
C102     C      0.696290000000     0.536720000000     0.112630000000    -0.100073   
C103     C      0.715380000000     0.677090000000     0.143900000000    -0.0316244  
C104     C      0.720470000000     0.519170000000     0.093700000000     0.0927702  
C105     C      0.824740000000     0.615000000000     0.098520000000     0.1771     
C106     C      0.691880000000     0.697200000000     0.162370000000    -0.0330217  
C107     C      0.642270000000     0.679210000000     0.201880000000     0.053908   
C108     C      0.736810000000     0.594530000000     0.124660000000     0.0695546  
C109     C      0.403350000000     0.742610000000     0.819770000000     0.531424   
C110     C      0.407050000000     0.740970000000     0.757970000000     0.531139   
C111     C      0.578110000000     0.744180000000     0.757700000000     0.527523   
C112     C      0.582760000000     0.909040000000     0.821540000000     0.538489   
C113     C      0.573420000000     0.914410000000     0.760020000000     0.526985   
C114     C      0.566090000000     0.729650000000     0.819620000000     0.5284     
C115     C      0.797230000000     0.520620000000     0.507490000000     0.533433   
C116     C      0.806380000000     0.534230000000     0.569250000000     0.540302   
C117     C      0.970670000000     0.522320000000     0.570250000000     0.53736    
C118     C      0.804720000000     0.352130000000     0.509460000000     0.528962   
C119     C      0.793150000000     0.354830000000     0.571040000000     0.53874    
C120     C      0.969410000000     0.526650000000     0.508450000000     0.521913   
C121     C      0.263020000000     0.632260000000     0.856130000000    -0.120143   
C122     C      0.008970000000     0.584350000000     0.473120000000     0.0814264  
C123     C      0.057490000000     0.525840000000     0.488980000000     0.0820455  
C124     C      0.051210000000     0.603650000000     0.454360000000    -0.0928281  
C125     C      0.210820000000     0.632740000000     0.436660000000    -0.0345294  
C126     C      0.253650000000     0.654530000000     0.417960000000    -0.0311329  
C127     C      0.143500000000     0.604880000000     0.433180000000    -0.004958   
C128     C      0.101280000000     0.545190000000     0.470610000000    -0.0943652  
C129     C      0.229820000000     0.647790000000     0.895420000000    -0.0106135  
C130     C      0.329110000000     0.735390000000     0.875550000000    -0.102709   
C131     C      0.162400000000     0.618910000000     0.891940000000    -0.0309655  
C132     C      0.369830000000     0.758200000000     0.856380000000     0.0851868  
C133     C      0.304520000000     0.656200000000     0.836990000000     0.171924   
C134     C      0.119730000000     0.598080000000     0.910640000000    -0.0342362  
C135     C      0.098170000000     0.584270000000     0.452980000000     0.0534899  
C136     C      0.275060000000     0.671820000000     0.875570000000     0.0673133  
C137     C      0.073900000000     0.530270000000     0.618880000000    -0.120239   
C138     C      0.330030000000     0.754140000000     0.735670000000     0.0869578  
C139     C      0.357680000000     0.673230000000     0.725270000000     0.0861006  
C140     C      0.288040000000     0.736980000000     0.716830000000    -0.0952578  
C141     C      0.177160000000     0.668980000000     0.682750000000    -0.0325884  
C142     C      0.134270000000     0.647980000000     0.664070000000    -0.0308519  
C143     C      0.235300000000     0.666510000000     0.681800000000    -0.00517159 
C144     C      0.315240000000     0.653960000000     0.706600000000    -0.0948854  
C145     C      0.148090000000     0.623000000000     0.644290000000    -0.0097702  
C146     C      0.085240000000     0.637120000000     0.612590000000    -0.100081   
C147     C      0.206180000000     0.621230000000     0.643090000000    -0.0314157  
C148     C      0.043000000000     0.611310000000     0.593880000000     0.0918067  
C149     C      0.031250000000     0.505180000000     0.600130000000     0.175076   
C150     C      0.249680000000     0.643460000000     0.661500000000    -0.0329659  
C151     C      0.280060000000     0.686220000000     0.701960000000     0.0558068  
C152     C      0.101100000000     0.596410000000     0.625170000000     0.0693775  
C153     C      0.695170000000     0.255040000000     0.620210000000    -0.1185     
C154     C      0.662340000000     0.993550000000     0.737590000000     0.0832346  
C155     C      0.554980000000     0.970200000000     0.729240000000     0.081692   
C156     C      0.686800000000     0.038250000000     0.719320000000    -0.09638    
C157     C      0.705150000000     0.089300000000     0.668920000000    -0.0339039  
C158     C      0.726090000000     0.132040000000     0.650050000000    -0.0305446  
C159     C      0.669250000000     0.096930000000     0.686600000000    -0.00583459 
C160     C      0.578010000000     0.015700000000     0.711210000000    -0.0966016  
C161     C      0.712710000000     0.184290000000     0.648660000000    -0.00863265 
C162     C      0.790180000000     0.244330000000     0.616070000000    -0.0984978  
C163     C      0.678070000000     0.192580000000     0.666810000000    -0.0305893  
C164     C      0.807570000000     0.284650000000     0.596650000000     0.0913421  
C165     C      0.713740000000     0.295790000000     0.600710000000     0.174356   
C166     C      0.655950000000     0.148930000000     0.685410000000    -0.0338735  
C167     C      0.644460000000     0.049860000000     0.706010000000     0.0546476  
C168     C      0.733350000000     0.228900000000     0.628200000000     0.0679705  
C169     C      0.683080000000     0.009030000000     0.870250000000    -0.121363   
C170     C      0.717230000000     0.272770000000     0.486660000000     0.0837609  
C171     C      0.825360000000     0.298590000000     0.478540000000     0.0826235  
C172     C      0.693950000000     0.228740000000     0.468200000000    -0.0952472  
C173     C      0.651580000000     0.114400000000     0.435390000000    -0.0342936  
C174     C      0.629410000000     0.070990000000     0.416720000000    -0.0312953  
C175     C      0.713400000000     0.171910000000     0.434870000000    -0.00518617 
C176     C      0.803610000000     0.253920000000     0.460290000000    -0.0949055  
C177     C      0.669080000000     0.083400000000     0.897360000000    -0.0113097  
C178     C      0.589720000000     0.022720000000     0.866020000000    -0.105037   
C179     C      0.730740000000     0.140290000000     0.896750000000    -0.0312679  
C180     C      0.570750000000     0.981200000000     0.846910000000     0.0877369  
C181     C      0.662970000000     0.967060000000     0.851090000000     0.173461   
C182     C      0.752400000000     0.184440000000     0.915170000000    -0.0337921  
C183     C      0.737180000000     0.218590000000     0.454700000000     0.0539525  
C184     C      0.646490000000     0.037100000000     0.877780000000     0.0687474  
C185     C      0.777970000000     0.628340000000     0.465500000000    -0.119988   
C186     C      0.542990000000     0.656510000000     0.851240000000     0.0826835  
C187     C      0.652180000000     0.738010000000     0.842980000000     0.0876526  
C188     C      0.563640000000     0.634150000000     0.869930000000    -0.0955597  
C189     C      0.649630000000     0.582070000000     0.894830000000    -0.0351789  
C190     C      0.673220000000     0.562130000000     0.913360000000    -0.0307644  
C191     C      0.652480000000     0.643350000000     0.895280000000    -0.00540134 
C192     C      0.674260000000     0.717920000000     0.861860000000    -0.0937613  
C193     C      0.698900000000     0.602580000000     0.432940000000    -0.0100698  
C194     C      0.697920000000     0.515120000000     0.458470000000    -0.102204   
C195     C      0.700330000000     0.663570000000     0.433380000000    -0.0301915  
C196     C      0.723970000000     0.496460000000     0.476510000000     0.0858151  
C197     C      0.803100000000     0.608560000000     0.483720000000     0.174414   
C198     C      0.678020000000     0.684020000000     0.414620000000    -0.0340251  
C199     C      0.629770000000     0.665370000000     0.875420000000     0.0550915  
C200     C      0.724930000000     0.581760000000     0.452620000000     0.067686   
C201     C      0.801230000000     0.633750000000     0.617500000000    -0.120026   
C202     C      0.569060000000     0.656740000000     0.734110000000     0.0826474  
C203     C      0.650680000000     0.767110000000     0.726370000000     0.0820493  
C204     C      0.589410000000     0.634330000000     0.715330000000    -0.0955969  
C205     C      0.661480000000     0.594420000000     0.682000000000    -0.0331705  
C206     C      0.683770000000     0.573780000000     0.663270000000    -0.0314282  
C207     C      0.665240000000     0.656520000000     0.681840000000    -0.00559627 
C208     C      0.673140000000     0.746310000000     0.707810000000    -0.0954066  
C209     C      0.711500000000     0.615280000000     0.644210000000    -0.00956885 
C210     C      0.696290000000     0.536720000000     0.612630000000    -0.100131   
C211     C      0.715380000000     0.677090000000     0.643900000000    -0.0316345  
C212     C      0.720470000000     0.519170000000     0.593710000000     0.0927986  
C213     C      0.824740000000     0.615000000000     0.598520000000     0.177099   
C214     C      0.691880000000     0.697200000000     0.662370000000    -0.0329952  
C215     C      0.642270000000     0.679210000000     0.701880000000     0.0539608  
C216     C      0.736810000000     0.594530000000     0.624660000000     0.0695734  
Fe1      Fe     0.475920000000     0.714320000000     0.288370000000     1.36259    
Fe2      Fe     0.599540000000     0.835780000000     0.289680000000     1.37383    
Fe3      Fe     0.479590000000     0.839460000000     0.290510000000     1.35669    
Fe4      Fe     0.898070000000     0.550570000000     0.038730000000     1.3781     
Fe5      Fe     0.896880000000     0.426700000000     0.040400000000     1.37052    
Fe6      Fe     0.775730000000     0.428130000000     0.039310000000     1.37353    
Fe7      Fe     0.475920000000     0.714320000000     0.788370000000     1.36255    
Fe8      Fe     0.599540000000     0.835780000000     0.789680000000     1.37382    
Fe9      Fe     0.479590000000     0.839460000000     0.790510000000     1.3567     
Fe10     Fe     0.898070000000     0.550570000000     0.538730000000     1.37802    
Fe11     Fe     0.896880000000     0.426700000000     0.540400000000     1.37052    
Fe12     Fe     0.775730000000     0.428130000000     0.539310000000     1.37353    
H1       H      0.061140000000     0.495210000000     0.002220000000     0.0293479  
H2       H      0.411650000000     0.807650000000     0.357340000000     0.0270397  
H3       H      0.068010000000     0.576410000000     0.407470000000     0.0419483  
H4       H      0.305390000000     0.676350000000     0.921090000000     0.0405957  
H5       H      0.339520000000     0.767790000000     0.390190000000     0.0583219  
H6       H      0.230430000000     0.638900000000     0.953870000000     0.0420402  
H7       H      0.220520000000     0.583250000000     0.355580000000     0.0802091  
H8       H      0.136720000000     0.528880000000     0.970040000000     0.0577401  
H9       H      0.047570000000     0.634230000000     0.941130000000     0.0594562  
H10      H      0.142770000000     0.613580000000     0.374760000000     0.0430702  
H11      H      0.973250000000     0.600310000000     0.973450000000     0.0410785  
H12      H      0.383980000000     0.646960000000     0.228070000000     0.0273791  
H13      H      0.031470000000     0.644550000000     0.084700000000     0.038911   
H14      H      0.294610000000     0.642440000000     0.159760000000     0.0407327  
H15      H      0.089380000000     0.649350000000     0.165320000000     0.0450047  
H16      H      0.106010000000     0.688810000000     0.117010000000     0.0654813  
H17      H      0.163770000000     0.685470000000     0.198110000000     0.042073   
H18      H      0.087050000000     0.498470000000     0.128190000000     0.0817547  
H19      H      0.309710000000     0.613310000000     0.196070000000     0.0574605  
H20      H      0.262850000000     0.764180000000     0.213840000000     0.0566355  
H21      H      0.217930000000     0.602680000000     0.127840000000     0.0439807  
H22      H      0.335010000000     0.793840000000     0.246670000000     0.0248503  
H23      H      0.503030000000     0.944190000000     0.232570000000     0.0249057  
H24      H      0.852720000000     0.296000000000     0.088160000000     0.0378268  
H25      H      0.628870000000     0.156110000000     0.198990000000     0.041918   
H26      H      0.751420000000     0.122970000000     0.136330000000     0.0410101  
H27      H      0.822060000000     0.226390000000     0.121680000000     0.0635554  
H28      H      0.715480000000     0.049110000000     0.169410000000     0.0417797  
H29      H      0.649210000000     0.241630000000     0.128410000000     0.0791934  
H30      H      0.543890000000     0.023300000000     0.201140000000     0.0572925  
H31      H      0.738570000000     0.064050000000     0.215760000000     0.0585249  
H32      H      0.668060000000     0.232950000000     0.166750000000     0.042814   
H33      H      0.696710000000     0.985980000000     0.247560000000     0.0276641  
H34      H      0.877160000000     0.325030000000     0.982130000000     0.0270834  
H35      H      0.525940000000     0.970950000000     0.338420000000     0.0223059  
H36      H      0.799500000000     0.228790000000     0.413770000000     0.0407004  
H37      H      0.581780000000     0.027030000000     0.917550000000     0.04044    
H38      H      0.560570000000     0.044200000000     0.371370000000     0.0585919  
H39      H      0.620510000000     0.102180000000     0.950350000000     0.0406368  
H40      H      0.728070000000     0.020880000000     0.378950000000     0.0810321  
H41      H      0.838940000000     0.246890000000     0.950800000000     0.0567545  
H42      H      0.642390000000     0.203790000000     0.964390000000     0.0560998  
H43      H      0.761800000000     0.151080000000     0.381830000000     0.0435396  
H44      H      0.682100000000     0.279320000000     0.996540000000     0.0273469  
H45      H      0.688160000000     0.778980000000     0.332850000000     0.0360065  
H46      H      0.700690000000     0.444080000000     0.980270000000     0.0259371  
H47      H      0.680150000000     0.731380000000     0.915280000000     0.0461214  
H48      H      0.672360000000     0.515530000000     0.412060000000     0.0389984  
H49      H      0.656100000000     0.477100000000     0.949390000000     0.0575145  
H50      H      0.630420000000     0.550280000000     0.379920000000     0.0418766  
H51      H      0.801770000000     0.680230000000     0.961050000000     0.0799603  
H52      H      0.725850000000     0.742940000000     0.365740000000     0.0629982  
H53      H      0.528110000000     0.593320000000     0.380200000000     0.0585859  
H54      H      0.718270000000     0.695550000000     0.948250000000     0.0440141  
H55      H      0.491230000000     0.631570000000     0.347620000000     0.0293831  
H56      H      0.676010000000     0.819510000000     0.230220000000     0.0260807  
H57      H      0.687360000000     0.473370000000     0.085040000000     0.038147   
H58      H      0.694200000000     0.744540000000     0.161220000000     0.0406215  
H59      H      0.680690000000     0.525980000000     0.163870000000     0.0440804  
H60      H      0.645900000000     0.505540000000     0.117660000000     0.0650447  
H61      H      0.642450000000     0.562060000000     0.196750000000     0.0405048  
H62      H      0.832900000000     0.679630000000     0.126370000000     0.0816559  
H63      H      0.715110000000     0.782920000000     0.198400000000     0.0561607  
H64      H      0.563030000000     0.582170000000     0.211280000000     0.0559131  
H65      H      0.735920000000     0.709530000000     0.129210000000     0.0447551  
H66      H      0.527890000000     0.620410000000     0.243980000000     0.0244628  
H67      H      0.061140000000     0.495210000000     0.502220000000     0.029368   
H68      H      0.411650000000     0.807650000000     0.857340000000     0.0270303  
H69      H      0.068010000000     0.576410000000     0.907470000000     0.0419483  
H70      H      0.305390000000     0.676350000000     0.421090000000     0.0405954  
H71      H      0.339520000000     0.767790000000     0.890190000000     0.0583224  
H72      H      0.230430000000     0.638900000000     0.453870000000     0.0420384  
H73      H      0.220520000000     0.583250000000     0.855580000000     0.0802111  
H74      H      0.136720000000     0.528880000000     0.470040000000     0.0577344  
H75      H      0.047570000000     0.634230000000     0.441130000000     0.059455   
H76      H      0.142770000000     0.613580000000     0.874760000000     0.0430702  
H77      H      0.973250000000     0.600310000000     0.473450000000     0.0410774  
H78      H      0.383980000000     0.646960000000     0.728070000000     0.0273782  
H79      H      0.031470000000     0.644550000000     0.584700000000     0.0389126  
H80      H      0.294610000000     0.642440000000     0.659760000000     0.0407295  
H81      H      0.089380000000     0.649350000000     0.665320000000     0.0450133  
H82      H      0.106010000000     0.688810000000     0.617010000000     0.0654814  
H83      H      0.163770000000     0.685470000000     0.698120000000     0.0420419  
H84      H      0.087050000000     0.498470000000     0.628190000000     0.0817541  
H85      H      0.309710000000     0.613310000000     0.696070000000     0.0574621  
H86      H      0.262850000000     0.764180000000     0.713840000000     0.0566368  
H87      H      0.217930000000     0.602680000000     0.627840000000     0.0439848  
H88      H      0.335010000000     0.793840000000     0.746670000000     0.0248508  
H89      H      0.503030000000     0.944190000000     0.732570000000     0.0249041  
H90      H      0.852720000000     0.296000000000     0.588160000000     0.0378279  
H91      H      0.628870000000     0.156110000000     0.699000000000     0.0418824  
H92      H      0.751420000000     0.122970000000     0.636330000000     0.041015   
H93      H      0.822060000000     0.226390000000     0.621680000000     0.0635556  
H94      H      0.715480000000     0.049110000000     0.669410000000     0.0417712  
H95      H      0.649210000000     0.241630000000     0.628410000000     0.079193   
H96      H      0.543890000000     0.023300000000     0.701140000000     0.0572978  
H97      H      0.738570000000     0.064050000000     0.715760000000     0.05853    
H98      H      0.668060000000     0.232950000000     0.666750000000     0.0428213  
H99      H      0.696710000000     0.985980000000     0.747560000000     0.0276623  
H100     H      0.877160000000     0.325030000000     0.482130000000     0.0270732  
H101     H      0.525940000000     0.970950000000     0.838420000000     0.0223036  
H102     H      0.799500000000     0.228790000000     0.913770000000     0.0406978  
H103     H      0.581780000000     0.027030000000     0.417550000000     0.0404306  
H104     H      0.560570000000     0.044200000000     0.871370000000     0.0585952  
H105     H      0.620510000000     0.102180000000     0.450340000000     0.0406641  
H106     H      0.728070000000     0.020880000000     0.878940000000     0.0810737  
H107     H      0.838940000000     0.246890000000     0.450800000000     0.0567256  
H108     H      0.642390000000     0.203790000000     0.464390000000     0.0560938  
H109     H      0.761800000000     0.151080000000     0.881830000000     0.0435419  
H110     H      0.682100000000     0.279320000000     0.496540000000     0.0273431  
H111     H      0.688160000000     0.778980000000     0.832850000000     0.0360062  
H112     H      0.700690000000     0.444080000000     0.480270000000     0.0259278  
H113     H      0.680150000000     0.731380000000     0.415280000000     0.0461214  
H114     H      0.672360000000     0.515530000000     0.912060000000     0.0390002  
H115     H      0.656100000000     0.477100000000     0.449390000000     0.0575181  
H116     H      0.630420000000     0.550280000000     0.879920000000     0.0418756  
H117     H      0.801770000000     0.680230000000     0.461050000000     0.0799688  
H118     H      0.725850000000     0.742940000000     0.865740000000     0.0629981  
H119     H      0.528110000000     0.593320000000     0.880200000000     0.058586   
H120     H      0.718270000000     0.695550000000     0.448250000000     0.0440095  
H121     H      0.491230000000     0.631570000000     0.847620000000     0.0293801  
H122     H      0.676010000000     0.819510000000     0.730220000000     0.0260789  
H123     H      0.687360000000     0.473370000000     0.585040000000     0.038154   
H124     H      0.694200000000     0.744540000000     0.661220000000     0.0406156  
H125     H      0.680690000000     0.525980000000     0.663870000000     0.0440827  
H126     H      0.645900000000     0.505540000000     0.617660000000     0.0650596  
H127     H      0.642450000000     0.562060000000     0.696750000000     0.0404967  
H128     H      0.832900000000     0.679630000000     0.626370000000     0.0816581  
H129     H      0.715110000000     0.782920000000     0.698400000000     0.0561673  
H130     H      0.563030000000     0.582170000000     0.711280000000     0.055923   
H131     H      0.735920000000     0.709530000000     0.629210000000     0.0447584  
H132     H      0.527890000000     0.620410000000     0.743990000000     0.0244861  
N1       N      0.358750000000     0.718890000000     0.337400000000    -0.223297   
N2       N      0.011950000000     0.545640000000     0.990290000000    -0.212341   
N3       N      0.285590000000     0.615930000000     0.316660000000    -0.0334769  
N4       N      0.015210000000     0.545820000000     0.087860000000    -0.222706   
N5       N      0.364910000000     0.722790000000     0.239750000000    -0.21447    
N6       N      0.009910000000     0.438490000000     0.093120000000    -0.0321528  
N7       N      0.770750000000     0.311430000000     0.089210000000    -0.222709   
N8       N      0.596860000000     0.959430000000     0.242410000000    -0.215323   
N9       N      0.669080000000     0.315440000000     0.092200000000    -0.0321088  
N10      N      0.606150000000     0.952610000000     0.339630000000    -0.224921   
N11      N      0.782480000000     0.307800000000     0.991670000000    -0.215682   
N12      N      0.705800000000     0.944720000000     0.342880000000    -0.03208    
N13      N      0.775640000000     0.542340000000     0.989310000000    -0.223028   
N14      N      0.586990000000     0.707850000000     0.337810000000    -0.214367   
N15      N      0.859290000000     0.659030000000     0.995410000000    -0.032819   
N16      N      0.784320000000     0.556930000000     0.086900000000    -0.222675   
N17      N      0.599240000000     0.722670000000     0.239490000000    -0.216016   
N18      N      0.889480000000     0.660390000000     0.090630000000    -0.0332355  
N19      N      0.358750000000     0.718890000000     0.837400000000    -0.223376   
N20      N      0.011950000000     0.545640000000     0.490290000000    -0.212345   
N21      N      0.285590000000     0.615930000000     0.816660000000    -0.0334819  
N22      N      0.015210000000     0.545820000000     0.587860000000    -0.222705   
N23      N      0.364910000000     0.722790000000     0.739750000000    -0.21447    
N24      N      0.009910000000     0.438490000000     0.593120000000    -0.0321528  
N25      N      0.770750000000     0.311430000000     0.589210000000    -0.222709   
N26      N      0.596860000000     0.959430000000     0.742410000000    -0.215325   
N27      N      0.669080000000     0.315440000000     0.592200000000    -0.032109   
N28      N      0.606150000000     0.952610000000     0.839630000000    -0.224926   
N29      N      0.782480000000     0.307800000000     0.491670000000    -0.215694   
N30      N      0.705800000000     0.944720000000     0.842880000000    -0.0320854  
N31      N      0.775640000000     0.542340000000     0.489310000000    -0.223069   
N32      N      0.586990000000     0.707850000000     0.837810000000    -0.214368   
N33      N      0.859290000000     0.659030000000     0.495410000000    -0.0328206  
N34      N      0.784320000000     0.556930000000     0.586900000000    -0.222674   
N35      N      0.599240000000     0.722670000000     0.739490000000    -0.216011   
N36      N      0.889480000000     0.660390000000     0.590630000000    -0.0332355  
O1       O      0.409070000000     0.781230000000     0.272980000000    -0.489554   
O2       O      0.603110000000     0.869620000000     0.317880000000    -0.488682   
O3       O      0.442710000000     0.715870000000     0.260610000000    -0.501998   
O4       O      0.404920000000     0.704300000000     0.304760000000    -0.475607   
O5       O      0.513150000000     0.878620000000     0.263170000000    -0.503611   
O6       O      0.606540000000     0.771580000000     0.305630000000    -0.491793   
O7       O      0.518470000000     0.796670000000     0.289470000000    -0.879412   
O8       O      0.602090000000     0.804860000000     0.261480000000    -0.505282   
O9       O      0.536000000000     0.703610000000     0.271590000000    -0.495022   
O10      O      0.443390000000     0.803360000000     0.318010000000    -0.501845   
O11      O      0.506330000000     0.707220000000     0.316130000000    -0.499945   
O12      O      0.611960000000     0.909470000000     0.273850000000    -0.492229   
O13      O      0.540730000000     0.908390000000     0.307970000000    -0.498547   
O14      O      0.766650000000     0.491000000000     0.055400000000    -0.490611   
O15      O      0.864760000000     0.388770000000     0.012820000000    -0.504552   
O16      O      0.866170000000     0.555970000000     0.066340000000    -0.484102   
O17      O      0.837680000000     0.560520000000     0.021880000000    -0.473317   
O18      O      0.771800000000     0.393500000000     0.067420000000    -0.485979   
O19      O      0.968060000000     0.486870000000     0.023510000000    -0.487917   
O20      O      0.856800000000     0.468340000000     0.039510000000    -0.886367   
O21      O      0.931720000000     0.461600000000     0.068020000000    -0.485736   
O22      O      0.968700000000     0.561390000000     0.055600000000    -0.488656   
O23      O      0.773820000000     0.459860000000     0.011100000000    -0.504177   
O24      O      0.932440000000     0.550290000000     0.010960000000    -0.491192   
O25      O      0.835680000000     0.356470000000     0.057450000000    -0.490675   
O26      O      0.765280000000     0.355550000000     0.023280000000    -0.493193   
O27      O      0.275890000000     0.638780000000     0.297580000000    -0.0964679  
O28      O      0.265440000000     0.553110000000     0.318290000000    -0.107913   
O29      O      0.989060000000     0.391700000000     0.108420000000    -0.108219   
O30      O      0.023340000000     0.426990000000     0.072540000000    -0.110995   
O31      O      0.641870000000     0.337410000000     0.106380000000    -0.110294   
O32      O      0.646230000000     0.299430000000     0.071410000000    -0.109852   
O33      O      0.730780000000     0.920910000000     0.357280000000    -0.108913   
O34      O      0.729700000000     0.960180000000     0.322210000000    -0.110599   
O35      O      0.858230000000     0.710210000000     0.003660000000    -0.0978268  
O36      O      0.914890000000     0.661150000000     0.993310000000    -0.0993939  
O37      O      0.936970000000     0.688400000000     0.105350000000    -0.106849   
O38      O      0.898430000000     0.683250000000     0.069750000000    -0.0961246  
O39      O      0.409070000000     0.781230000000     0.772980000000    -0.489542   
O40      O      0.603110000000     0.869620000000     0.817880000000    -0.488684   
O41      O      0.442710000000     0.715870000000     0.760610000000    -0.501993   
O42      O      0.404920000000     0.704300000000     0.804760000000    -0.475418   
O43      O      0.513150000000     0.878620000000     0.763170000000    -0.503612   
O44      O      0.606540000000     0.771580000000     0.805630000000    -0.491793   
O45      O      0.518470000000     0.796670000000     0.789470000000    -0.879405   
O46      O      0.602090000000     0.804860000000     0.761480000000    -0.50528    
O47      O      0.536000000000     0.703610000000     0.771590000000    -0.495019   
O48      O      0.443390000000     0.803360000000     0.818010000000    -0.501782   
O49      O      0.506330000000     0.707220000000     0.816130000000    -0.49995    
O50      O      0.611960000000     0.909470000000     0.773850000000    -0.49223    
O51      O      0.540730000000     0.908390000000     0.807970000000    -0.498552   
O52      O      0.766650000000     0.491000000000     0.555400000000    -0.490627   
O53      O      0.864760000000     0.388770000000     0.512820000000    -0.50455    
O54      O      0.866170000000     0.555970000000     0.566340000000    -0.484102   
O55      O      0.837680000000     0.560520000000     0.521870000000    -0.473384   
O56      O      0.771800000000     0.393500000000     0.567420000000    -0.48598    
O57      O      0.968060000000     0.486870000000     0.523510000000    -0.487913   
O58      O      0.856800000000     0.468340000000     0.539510000000    -0.886358   
O59      O      0.931720000000     0.461600000000     0.568020000000    -0.485734   
O60      O      0.968700000000     0.561390000000     0.555600000000    -0.488641   
O61      O      0.773820000000     0.459860000000     0.511100000000    -0.50425    
O62      O      0.932440000000     0.550290000000     0.510960000000    -0.491165   
O63      O      0.835680000000     0.356470000000     0.557450000000    -0.490675   
O64      O      0.765280000000     0.355550000000     0.523280000000    -0.493191   
O65      O      0.275890000000     0.638780000000     0.797580000000    -0.0964637  
O66      O      0.265440000000     0.553110000000     0.818290000000    -0.107917   
O67      O      0.989060000000     0.391700000000     0.608420000000    -0.108219   
O68      O      0.023340000000     0.426990000000     0.572540000000    -0.110992   
O69      O      0.641870000000     0.337410000000     0.606380000000    -0.110295   
O70      O      0.646230000000     0.299430000000     0.571410000000    -0.109848   
O71      O      0.730780000000     0.920910000000     0.857280000000    -0.108915   
O72      O      0.729700000000     0.960180000000     0.822210000000    -0.1106     
O73      O      0.858230000000     0.710210000000     0.503660000000    -0.0978129  
O74      O      0.914890000000     0.661150000000     0.493310000000    -0.0993909  
O75      O      0.936970000000     0.688400000000     0.605350000000    -0.106849   
O76      O      0.898430000000     0.683250000000     0.569750000000    -0.0961258  


