data_structure

_audit_creation_method RASPA-1.0
_audit_creation_date 2023-6-4
_audit_author_name 'Poobodin Mano'

_cell_length_a    24.6702
_cell_length_b    24.444
_cell_length_c    56.1484
_cell_angle_alpha 90
_cell_angle_beta  90
_cell_angle_gamma 120
_cell_volume      29323.3

_symmetry_cell_setting          triclinic
_symmetry_space_group_name_Hall 'P 1'
_symmetry_space_group_name_H-M  'P 1'
_symmetry_Int_Tables_number     1

_symmetry_equiv_pos_as_xyz 'x,y,z'

loop_
_atom_site_label
_atom_site_type_symbol
_atom_site_fract_x
_atom_site_fract_y
_atom_site_fract_z
_atom_site_charge
C1       C      0.535990000000     0.718380000000     0.271300000000     0.522233   
C2       C      0.529390000000     0.704850000000     0.335430000000     0.527327   
C3       C      0.375870000000     0.718690000000     0.338350000000     0.525012   
C4       C      0.534630000000     0.882900000000     0.274990000000     0.525089   
C5       C      0.546860000000     0.876600000000     0.338800000000     0.530378   
C6       C      0.373450000000     0.718130000000     0.273660000000     0.516648   
C7       C      0.770110000000     0.502670000000     0.086030000000     0.529881   
C8       C      0.756940000000     0.488740000000     0.022970000000     0.533398   
C9       C      0.768620000000     0.327470000000     0.024520000000     0.523137   
C10      C      0.925080000000     0.493650000000     0.087900000000     0.522175   
C11      C      0.926280000000     0.494380000000     0.023140000000     0.520365   
C12      C      0.757320000000     0.331410000000     0.088340000000     0.535389   
C13      C      0.299550000000     0.705310000000     0.396230000000    -0.0619202  
C14      C      0.968310000000     0.552450000000     0.987320000000     0.0801312  
C15      C      0.011640000000     0.493350000000     0.003750000000     0.0807273  
C16      C      0.011540000000     0.572920000000     0.968690000000    -0.096708   
C17      C      0.086620000000     0.577990000000     0.424690000000    -0.0330982  
C18      C      0.131700000000     0.600850000000     0.406640000000    -0.0369224  
C19      C      0.103920000000     0.576930000000     0.948470000000    -0.0084395  
C20      C      0.055970000000     0.513460000000     0.985480000000    -0.0972126  
C21      C      0.195070000000     0.623760000000     0.412050000000    -0.00141233 
C22      C      0.233750000000     0.615500000000     0.371780000000    -0.0876962  
C23      C      0.212320000000     0.622540000000     0.935820000000    -0.0369435  
C24      C      0.279920000000     0.639040000000     0.354230000000     0.0750443  
C25      C      0.345840000000     0.727750000000     0.378450000000     0.0305569  
C26      C      0.167190000000     0.599120000000     0.953820000000    -0.0327022  
C27      C      0.056350000000     0.553850000000     0.967710000000     0.0536257  
C28      C      0.243110000000     0.648860000000     0.392980000000     0.0405706  
C29      C      0.408450000000     0.781000000000     0.385030000000     0.291104   
C30      C      0.001540000000     0.509670000000     0.146050000000    -0.0614985  
C31      C      0.288240000000     0.720670000000     0.254610000000     0.0796069  
C32      C      0.331520000000     0.662540000000     0.237340000000     0.0784607  
C33      C      0.243890000000     0.701590000000     0.236310000000    -0.0954804  
C34      C      0.213740000000     0.640300000000     0.174860000000    -0.0333201  
C35      C      0.168780000000     0.617390000000     0.156730000000    -0.0366137  
C36      C      0.196150000000     0.640200000000     0.198690000000    -0.00740467 
C37      C      0.288450000000     0.643260000000     0.218670000000    -0.0927206  
C38      C      0.105160000000     0.593150000000     0.162080000000    -0.00132466 
C39      C      0.065810000000     0.600030000000     0.121640000000    -0.0874043  
C40      C      0.087620000000     0.593500000000     0.185890000000    -0.036774   
C41      C      0.019870000000     0.575250000000     0.103960000000     0.0742761  
C42      C      0.955520000000     0.485900000000     0.128140000000     0.0302051  
C43      C      0.132660000000     0.617080000000     0.203970000000    -0.0327944  
C44      C      0.243580000000     0.662300000000     0.218060000000     0.0521771  
C45      C      0.057140000000     0.567050000000     0.142920000000     0.0401255  
C46      C      0.893680000000     0.431230000000     0.134580000000     0.291294   
C47      C      0.640220000000     0.010060000000     0.233710000000    -0.059733   
C48      C      0.683540000000     0.281330000000     0.119580000000     0.0796535  
C49      C      0.762870000000     0.255090000000     0.112930000000     0.088373   
C50      C      0.659390000000     0.238260000000     0.138360000000    -0.0972775  
C51      C      0.604220000000     0.105240000000     0.163440000000    -0.0334768  
C52      C      0.582280000000     0.060990000000     0.181920000000    -0.0359518  
C53      C      0.664050000000     0.158770000000     0.164700000000    -0.00760786 
C54      C      0.740860000000     0.212820000000     0.132010000000    -0.0948824  
C55      C      0.619350000000     0.070140000000     0.202250000000    -0.00101859 
C56      C      0.534150000000     0.984970000000     0.227310000000    -0.0863378  
C57      C      0.678590000000     0.125230000000     0.203660000000    -0.0358049  
C58      C      0.514830000000     0.938410000000     0.244830000000     0.0748576  
C59      C      0.620000000000     0.963200000000     0.251310000000     0.0306818  
C60      C      0.700990000000     0.168620000000     0.184940000000    -0.0328739  
C61      C      0.688400000000     0.203900000000     0.144760000000     0.0557223  
C62      C      0.597540000000     0.021550000000     0.221480000000     0.0408679  
C63      C      0.669490000000     0.953350000000     0.261940000000     0.291866   
C64      C      0.665700000000     0.198610000000     0.983360000000    -0.060459   
C65      C      0.621240000000     0.923950000000     0.370150000000     0.0788637  
C66      C      0.543360000000     0.952540000000     0.364280000000     0.0881458  
C67      C      0.646090000000     0.965930000000     0.389280000000    -0.0970108  
C68      C      0.704330000000     0.096460000000     0.416110000000    -0.0334342  
C69      C      0.726160000000     0.141000000000     0.434530000000    -0.035718   
C70      C      0.643000000000     0.045080000000     0.416600000000    -0.00728487 
C71      C      0.566000000000     0.993640000000     0.383700000000    -0.0944204  
C72      C      0.687390000000     0.134340000000     0.954050000000    -0.000991104
C73      C      0.771330000000     0.220030000000     0.979540000000    -0.0863084  
C74      C      0.626820000000     0.080960000000     0.954850000000    -0.0356632  
C75      C      0.789980000000     0.268370000000     0.996330000000     0.0752746  
C76      C      0.685370000000     0.247470000000     0.000110000000     0.0337708  
C77      C      0.604640000000     0.037350000000     0.936190000000    -0.0329011  
C78      C      0.618090000000     0.000880000000     0.396290000000     0.0552686  
C79      C      0.708470000000     0.184260000000     0.972810000000     0.0412242  
C80      C      0.637380000000     0.263250000000     0.007700000000     0.286464   
C81      C      0.647620000000     0.495540000000     0.980030000000    -0.0608608  
C82      C      0.613870000000     0.708120000000     0.356980000000     0.0836896  
C83      C      0.509400000000     0.636020000000     0.368430000000     0.0842239  
C84      C      0.636740000000     0.687170000000     0.375450000000    -0.0967719  
C85      C      0.673760000000     0.612530000000     0.407660000000    -0.0325293  
C86      C      0.696540000000     0.591970000000     0.926360000000    -0.0363857  
C87      C      0.618910000000     0.616170000000     0.410490000000    -0.00758288 
C88      C      0.530690000000     0.613360000000     0.386920000000    -0.0953623  
C89      C      0.664520000000     0.573710000000     0.948150000000    -0.00111869 
C90      C      0.750300000000     0.586140000000     0.975270000000    -0.0882919  
C91      C      0.609640000000     0.576920000000     0.951010000000    -0.0365405  
C92      C      0.771120000000     0.564990000000     0.994350000000     0.0788622  
C93      C      0.669300000000     0.475320000000     0.999360000000     0.0363671  
C94      C      0.587280000000     0.598270000000     0.432450000000    -0.0321425  
C95      C      0.595130000000     0.639030000000     0.390700000000     0.0544977  
C96      C      0.688070000000     0.551120000000     0.967880000000     0.042347   
C97      C      0.620890000000     0.422680000000     0.014000000000     0.296499   
C98      C      0.553700000000     0.613960000000     0.228120000000    -0.0606931  
C99      C      0.790340000000     0.575820000000     0.117490000000     0.0842232  
C100     C      0.686320000000     0.495510000000     0.109190000000     0.0847316  
C101     C      0.769130000000     0.599510000000     0.135650000000    -0.0958043  
C102     C      0.716390000000     0.622100000000     0.180840000000    -0.0320133  
C103     C      0.693070000000     0.643890000000     0.198940000000    -0.0369778  
C104     C      0.681010000000     0.594580000000     0.160080000000    -0.00783356 
C105     C      0.663700000000     0.517050000000     0.127510000000    -0.0960847  
C106     C      0.633550000000     0.637420000000     0.196820000000    -0.000736282
C107     C      0.635320000000     0.721320000000     0.222390000000    -0.0846641  
C108     C      0.598160000000     0.610350000000     0.176220000000    -0.0372509  
C109     C      0.608870000000     0.739960000000     0.240290000000     0.0724709  
C110     C      0.527790000000     0.633520000000     0.246160000000     0.0306861  
C111     C      0.621900000000     0.589830000000     0.157910000000    -0.0319593  
C112     C      0.705000000000     0.570180000000     0.140880000000     0.0547001  
C113     C      0.607630000000     0.657870000000     0.216230000000     0.0405045  
C114     C      0.467880000000     0.583550000000     0.256420000000     0.290395   
C115     C      0.535990000000     0.718380000000     0.771300000000     0.522226   
C116     C      0.529390000000     0.704850000000     0.835430000000     0.527324   
C117     C      0.375870000000     0.718690000000     0.838350000000     0.525012   
C118     C      0.534630000000     0.882900000000     0.774990000000     0.52531    
C119     C      0.546860000000     0.876600000000     0.838800000000     0.530372   
C120     C      0.373450000000     0.718130000000     0.773660000000     0.516649   
C121     C      0.770110000000     0.502670000000     0.586030000000     0.530025   
C122     C      0.756940000000     0.488740000000     0.522970000000     0.5334     
C123     C      0.768620000000     0.327470000000     0.524520000000     0.523135   
C124     C      0.925080000000     0.493650000000     0.587900000000     0.522176   
C125     C      0.926280000000     0.494380000000     0.523140000000     0.520358   
C126     C      0.757320000000     0.331410000000     0.588340000000     0.535389   
C127     C      0.299550000000     0.705310000000     0.896230000000    -0.0619117  
C128     C      0.968310000000     0.552450000000     0.487320000000     0.0802051  
C129     C      0.011640000000     0.493350000000     0.503750000000     0.0806098  
C130     C      0.011540000000     0.572920000000     0.468690000000    -0.0967036  
C131     C      0.086620000000     0.577990000000     0.924690000000    -0.0330828  
C132     C      0.131700000000     0.600850000000     0.906640000000    -0.0369502  
C133     C      0.103920000000     0.576930000000     0.448470000000    -0.00841512 
C134     C      0.055970000000     0.513460000000     0.485480000000    -0.0970959  
C135     C      0.195070000000     0.623760000000     0.912060000000    -0.00137295 
C136     C      0.233750000000     0.615500000000     0.871780000000    -0.0876884  
C137     C      0.212320000000     0.622540000000     0.435820000000    -0.0369144  
C138     C      0.279920000000     0.639040000000     0.854230000000     0.0750409  
C139     C      0.345840000000     0.727750000000     0.878450000000     0.0305698  
C140     C      0.167190000000     0.599120000000     0.453820000000    -0.032716   
C141     C      0.056350000000     0.553850000000     0.467710000000     0.0536004  
C142     C      0.243110000000     0.648860000000     0.892980000000     0.0405478  
C143     C      0.408450000000     0.781000000000     0.885020000000     0.290957   
C144     C      0.001540000000     0.509670000000     0.646050000000    -0.0614967  
C145     C      0.288240000000     0.720670000000     0.754610000000     0.0796028  
C146     C      0.331520000000     0.662540000000     0.737340000000     0.0784603  
C147     C      0.243890000000     0.701590000000     0.736310000000    -0.0954766  
C148     C      0.213740000000     0.640300000000     0.674860000000    -0.0333226  
C149     C      0.168780000000     0.617390000000     0.656730000000    -0.0366184  
C150     C      0.196150000000     0.640200000000     0.698690000000    -0.00739557 
C151     C      0.288450000000     0.643260000000     0.718670000000    -0.0927203  
C152     C      0.105160000000     0.593150000000     0.662080000000    -0.00131266 
C153     C      0.065810000000     0.600030000000     0.621640000000    -0.0874045  
C154     C      0.087620000000     0.593500000000     0.685880000000    -0.0367641  
C155     C      0.019870000000     0.575250000000     0.603960000000     0.0742735  
C156     C      0.955520000000     0.485900000000     0.628140000000     0.0302029  
C157     C      0.132660000000     0.617080000000     0.703970000000    -0.0328137  
C158     C      0.243580000000     0.662300000000     0.718060000000     0.0521763  
C159     C      0.057140000000     0.567050000000     0.642920000000     0.0401205  
C160     C      0.893680000000     0.431230000000     0.634580000000     0.291295   
C161     C      0.640220000000     0.010060000000     0.733710000000    -0.0597373  
C162     C      0.683540000000     0.281330000000     0.619580000000     0.0796486  
C163     C      0.762870000000     0.255090000000     0.612930000000     0.0883676  
C164     C      0.659390000000     0.238260000000     0.638360000000    -0.0972695  
C165     C      0.604220000000     0.105240000000     0.663440000000    -0.033493   
C166     C      0.582280000000     0.060990000000     0.681920000000    -0.0359532  
C167     C      0.664050000000     0.158770000000     0.664710000000    -0.00757724 
C168     C      0.740860000000     0.212820000000     0.632010000000    -0.0948753  
C169     C      0.619350000000     0.070140000000     0.702250000000    -0.00100139 
C170     C      0.534150000000     0.984970000000     0.727310000000    -0.0863387  
C171     C      0.678590000000     0.125230000000     0.703660000000    -0.0358547  
C172     C      0.514830000000     0.938410000000     0.744830000000     0.074862   
C173     C      0.620000000000     0.963200000000     0.751310000000     0.0306975  
C174     C      0.700990000000     0.168620000000     0.684940000000    -0.0328692  
C175     C      0.688400000000     0.203900000000     0.644760000000     0.0557008  
C176     C      0.597540000000     0.021550000000     0.721480000000     0.0408647  
C177     C      0.669490000000     0.953350000000     0.761940000000     0.291867   
C178     C      0.665700000000     0.198610000000     0.483360000000    -0.0603853  
C179     C      0.621240000000     0.923950000000     0.870150000000     0.0788626  
C180     C      0.543360000000     0.952540000000     0.864280000000     0.0881449  
C181     C      0.646090000000     0.965930000000     0.889280000000    -0.0970087  
C182     C      0.704330000000     0.096460000000     0.916110000000    -0.033451   
C183     C      0.726160000000     0.141000000000     0.934530000000    -0.0357015  
C184     C      0.643000000000     0.045080000000     0.916600000000    -0.00727145 
C185     C      0.566000000000     0.993640000000     0.883700000000    -0.0944196  
C186     C      0.687390000000     0.134340000000     0.454050000000    -0.000947586
C187     C      0.771330000000     0.220030000000     0.479540000000    -0.0863513  
C188     C      0.626820000000     0.080960000000     0.454860000000    -0.0357353  
C189     C      0.789980000000     0.268370000000     0.496330000000     0.0754626  
C190     C      0.685370000000     0.247470000000     0.500110000000     0.0336759  
C191     C      0.604640000000     0.037350000000     0.436190000000    -0.0328676  
C192     C      0.618090000000     0.000880000000     0.896290000000     0.055261   
C193     C      0.708470000000     0.184260000000     0.472810000000     0.0412275  
C194     C      0.637380000000     0.263250000000     0.507700000000     0.286479   
C195     C      0.647620000000     0.495540000000     0.480030000000    -0.0609226  
C196     C      0.613870000000     0.708120000000     0.856980000000     0.0836932  
C197     C      0.509400000000     0.636020000000     0.868430000000     0.0842265  
C198     C      0.636740000000     0.687170000000     0.875450000000    -0.0967825  
C199     C      0.673760000000     0.612530000000     0.907660000000    -0.0325023  
C200     C      0.696540000000     0.591970000000     0.426360000000    -0.0363639  
C201     C      0.618910000000     0.616170000000     0.910480000000    -0.00762825 
C202     C      0.530690000000     0.613360000000     0.886920000000    -0.0953735  
C203     C      0.664520000000     0.573710000000     0.448150000000    -0.0011404  
C204     C      0.750300000000     0.586140000000     0.475270000000    -0.0883321  
C205     C      0.609640000000     0.576920000000     0.451010000000    -0.0365186  
C206     C      0.771120000000     0.564990000000     0.494350000000     0.0789541  
C207     C      0.669300000000     0.475320000000     0.499360000000     0.0365417  
C208     C      0.587280000000     0.598270000000     0.932450000000    -0.0321215  
C209     C      0.595130000000     0.639030000000     0.890700000000     0.0545206  
C210     C      0.688070000000     0.551120000000     0.467880000000     0.0423986  
C211     C      0.620890000000     0.422680000000     0.514000000000     0.296384   
C212     C      0.553700000000     0.613960000000     0.728120000000    -0.0606804  
C213     C      0.790340000000     0.575820000000     0.617490000000     0.0841888  
C214     C      0.686320000000     0.495510000000     0.609190000000     0.084746   
C215     C      0.769130000000     0.599510000000     0.635650000000    -0.0957938  
C216     C      0.716390000000     0.622100000000     0.680840000000    -0.0320122  
C217     C      0.693070000000     0.643890000000     0.698940000000    -0.0369814  
C218     C      0.681010000000     0.594580000000     0.660080000000    -0.00783493 
C219     C      0.663700000000     0.517050000000     0.627510000000    -0.0960942  
C220     C      0.633550000000     0.637420000000     0.696820000000    -0.000729227
C221     C      0.635320000000     0.721320000000     0.722400000000    -0.0846379  
C222     C      0.598160000000     0.610350000000     0.676220000000    -0.0372559  
C223     C      0.608870000000     0.739960000000     0.740290000000     0.072489   
C224     C      0.527790000000     0.633520000000     0.746160000000     0.0306824  
C225     C      0.621900000000     0.589830000000     0.657910000000    -0.0319586  
C226     C      0.705000000000     0.570180000000     0.640880000000     0.0546964  
C227     C      0.607630000000     0.657870000000     0.716230000000     0.0404788  
C228     C      0.467880000000     0.583550000000     0.756420000000     0.290396   
Fe1      Fe     0.440970000000     0.691540000000     0.304210000000     1.36137    
Fe2      Fe     0.445780000000     0.811520000000     0.307310000000     1.34924    
Fe3      Fe     0.560320000000     0.806750000000     0.304770000000     1.36923    
Fe4      Fe     0.739810000000     0.400680000000     0.055250000000     1.38263    
Fe5      Fe     0.856790000000     0.400320000000     0.056820000000     1.34796    
Fe6      Fe     0.857800000000     0.518390000000     0.053830000000     1.35399    
Fe7      Fe     0.440970000000     0.691540000000     0.804210000000     1.36137    
Fe8      Fe     0.445780000000     0.811520000000     0.807310000000     1.34924    
Fe9      Fe     0.560320000000     0.806750000000     0.804770000000     1.36915    
Fe10     Fe     0.739810000000     0.400680000000     0.555250000000     1.38264    
Fe11     Fe     0.856790000000     0.400320000000     0.556820000000     1.34796    
Fe12     Fe     0.857800000000     0.518390000000     0.553830000000     1.354      
H1       H      0.012900000000     0.462080000000     0.017160000000     0.022878   
H2       H      0.269910000000     0.612040000000     0.337870000000     0.0264333  
H3       H      0.181960000000     0.599340000000     0.972010000000     0.0388045  
H4       H      0.117140000000     0.601470000000     0.388490000000     0.040057   
H5       H      0.191050000000     0.571040000000     0.368790000000     0.0531529  
H6       H      0.038120000000     0.560740000000     0.420020000000     0.0388785  
H7       H      0.308350000000     0.730820000000     0.412900000000     0.0576656  
H8       H      0.089470000000     0.497100000000     0.985200000000     0.0547603  
H9       H      0.010590000000     0.604540000000     0.955390000000     0.0548259  
H10      H      0.260730000000     0.639260000000     0.940470000000     0.0413096  
H11      H      0.934730000000     0.568770000000     0.987500000000     0.025365   
H12      H      0.501120000000     0.809370000000     0.885900000000     0.183506   
H13      H      0.365290000000     0.646550000000     0.237060000000     0.0428629  
H14      H      0.029380000000     0.602090000000     0.087590000000     0.0250174  
H15      H      0.117600000000     0.615950000000     0.222180000000     0.0392507  
H16      H      0.183670000000     0.617530000000     0.138570000000     0.0401204  
H17      H      0.107800000000     0.645110000000     0.118680000000     0.0525429  
H18      H      0.262370000000     0.658270000000     0.170210000000     0.0392871  
H19      H      0.993180000000     0.484290000000     0.162730000000     0.0578753  
H20      H      0.289620000000     0.612580000000     0.205010000000     0.0572383  
H21      H      0.210340000000     0.717880000000     0.236360000000     0.0543231  
H22      H      0.039030000000     0.575760000000     0.190520000000     0.0413614  
H23      H      0.286890000000     0.751040000000     0.268390000000     0.023233   
H24      H      0.800320000000     0.399720000000     0.135210000000     0.184029   
H25      H      0.803530000000     0.260680000000     0.103380000000     0.0276374  
H26      H      0.465100000000     0.911960000000     0.248670000000     0.0270128  
H27      H      0.747070000000     0.210130000000     0.186310000000     0.0448626  
H28      H      0.536950000000     0.018890000000     0.179910000000     0.0396927  
H29      H      0.499250000000     0.992530000000     0.218630000000     0.0522477  
H30      H      0.575180000000     0.096850000000     0.147850000000     0.0404294  
H31      H      0.689390000000     0.035840000000     0.228940000000     0.0561724  
H32      H      0.764240000000     0.186720000000     0.136610000000     0.0599832  
H33      H      0.618770000000     0.232410000000     0.147990000000     0.0566856  
H34      H      0.707940000000     0.135010000000     0.219230000000     0.043206   
H35      H      0.660100000000     0.307560000000     0.115240000000     0.0250046  
H36      H      0.753680000000     0.997700000000     0.278720000000     0.178625   
H37      H      0.502990000000     0.948350000000     0.354930000000     0.0284961  
H38      H      0.839190000000     0.293870000000     0.001060000000     0.0259109  
H39      H      0.557370000000     0.997550000000     0.937020000000     0.044673   
H40      H      0.772660000000     0.181670000000     0.432990000000     0.0398513  
H41      H      0.806270000000     0.210490000000     0.972120000000     0.0520994  
H42      H      0.734570000000     0.103350000000     0.401050000000     0.0403046  
H43      H      0.617230000000     0.174080000000     0.977640000000     0.0579784  
H44      H      0.543390000000     0.020220000000     0.388680000000     0.0605603  
H45      H      0.686400000000     0.970410000000     0.398740000000     0.0557385  
H46      H      0.596060000000     0.072980000000     0.969820000000     0.0430543  
H47      H      0.643830000000     0.897180000000     0.365360000000     0.0239511  
H48      H      0.549650000000     0.226750000000     0.021180000000     0.179425   
H49      H      0.459230000000     0.614950000000     0.366160000000     0.0288788  
H50      H      0.820150000000     0.592880000000     0.999220000000     0.0228378  
H51      H      0.545700000000     0.601610000000     0.435490000000     0.0394241  
H52      H      0.738650000000     0.589310000000     0.923660000000     0.0409386  
H53      H      0.782660000000     0.629970000000     0.966480000000     0.0530748  
H54      H      0.698800000000     0.624780000000     0.390900000000     0.0387328  
H55      H      0.598700000000     0.469210000000     0.974910000000     0.0622326  
H56      H      0.496650000000     0.575410000000     0.397980000000     0.056125   
H57      H      0.686880000000     0.709460000000     0.377920000000     0.0545434  
H58      H      0.584530000000     0.563860000000     0.967780000000     0.0419116  
H59      H      0.647860000000     0.745640000000     0.345710000000     0.0236533  
H60      H      0.536440000000     0.341900000000     0.012600000000     0.180985   
H61      H      0.652540000000     0.454360000000     0.099300000000     0.030229   
H62      H      0.632620000000     0.789820000000     0.244500000000     0.0439868  
H63      H      0.593860000000     0.570550000000     0.142010000000     0.0390945  
H64      H      0.720840000000     0.664460000000     0.214830000000     0.0421953  
H65      H      0.676970000000     0.756510000000     0.213270000000     0.0561522  
H66      H      0.761560000000     0.625740000000     0.183390000000     0.038916   
H67      H      0.531260000000     0.564560000000     0.223010000000     0.0585931  
H68      H      0.613990000000     0.491490000000     0.131230000000     0.0560383  
H69      H      0.802920000000     0.641190000000     0.145210000000     0.0550947  
H70      H      0.552300000000     0.605580000000     0.174230000000     0.0423504  
H71      H      0.840240000000     0.599980000000     0.113990000000     0.0266777  
H72      H      0.424430000000     0.495220000000     0.270550000000     0.179682   
H73      H      0.012900000000     0.462080000000     0.517160000000     0.0228874  
H74      H      0.269910000000     0.612040000000     0.837870000000     0.0264336  
H75      H      0.181960000000     0.599340000000     0.472010000000     0.0388218  
H76      H      0.117140000000     0.601470000000     0.888490000000     0.0400623  
H77      H      0.191050000000     0.571040000000     0.868790000000     0.0531489  
H78      H      0.038120000000     0.560740000000     0.920020000000     0.0388709  
H79      H      0.308350000000     0.730820000000     0.912900000000     0.0576623  
H80      H      0.089470000000     0.497100000000     0.485200000000     0.0547525  
H81      H      0.010590000000     0.604540000000     0.455390000000     0.0548317  
H82      H      0.260730000000     0.639260000000     0.440470000000     0.04131    
H83      H      0.934730000000     0.568770000000     0.487500000000     0.0253716  
H84      H      0.501120000000     0.809370000000     0.385900000000     0.183597   
H85      H      0.365290000000     0.646550000000     0.737060000000     0.0428627  
H86      H      0.029380000000     0.602090000000     0.587590000000     0.0250107  
H87      H      0.117600000000     0.615950000000     0.722180000000     0.0392554  
H88      H      0.183670000000     0.617530000000     0.638570000000     0.040117   
H89      H      0.107800000000     0.645110000000     0.618680000000     0.0525378  
H90      H      0.262370000000     0.658270000000     0.670210000000     0.0392853  
H91      H      0.993180000000     0.484290000000     0.662730000000     0.0578745  
H92      H      0.289620000000     0.612580000000     0.705010000000     0.0572369  
H93      H      0.210340000000     0.717880000000     0.736370000000     0.0543202  
H94      H      0.039030000000     0.575760000000     0.690520000000     0.0413553  
H95      H      0.286890000000     0.751040000000     0.768390000000     0.0232323  
H96      H      0.800320000000     0.399720000000     0.635210000000     0.184029   
H97      H      0.803530000000     0.260680000000     0.603380000000     0.0276341  
H98      H      0.465100000000     0.911960000000     0.748670000000     0.0270095  
H99      H      0.747070000000     0.210130000000     0.686310000000     0.0448597  
H100     H      0.536950000000     0.018890000000     0.679910000000     0.039691   
H101     H      0.499250000000     0.992530000000     0.718630000000     0.052247   
H102     H      0.575180000000     0.096850000000     0.647850000000     0.0404295  
H103     H      0.689390000000     0.035840000000     0.728940000000     0.0561728  
H104     H      0.764240000000     0.186720000000     0.636610000000     0.0599772  
H105     H      0.618770000000     0.232410000000     0.647990000000     0.0566817  
H106     H      0.707940000000     0.135010000000     0.719220000000     0.0432324  
H107     H      0.660100000000     0.307560000000     0.615240000000     0.0250039  
H108     H      0.753680000000     0.997700000000     0.778720000000     0.178625   
H109     H      0.502990000000     0.948350000000     0.854940000000     0.0284813  
H110     H      0.839190000000     0.293870000000     0.501060000000     0.0258107  
H111     H      0.557370000000     0.997550000000     0.437020000000     0.0446734  
H112     H      0.772660000000     0.181670000000     0.932990000000     0.0398415  
H113     H      0.806270000000     0.210490000000     0.472120000000     0.052127   
H114     H      0.734570000000     0.103350000000     0.901050000000     0.0403061  
H115     H      0.617230000000     0.174080000000     0.477650000000     0.0579936  
H116     H      0.543390000000     0.020220000000     0.888680000000     0.0605565  
H117     H      0.686400000000     0.970410000000     0.898740000000     0.0557338  
H118     H      0.596060000000     0.072980000000     0.469820000000     0.0431012  
H119     H      0.643830000000     0.897180000000     0.865360000000     0.0239505  
H120     H      0.549650000000     0.226750000000     0.521180000000     0.179419   
H121     H      0.459230000000     0.614950000000     0.866160000000     0.0288763  
H122     H      0.820150000000     0.592880000000     0.499230000000     0.0228547  
H123     H      0.545700000000     0.601610000000     0.935490000000     0.0394115  
H124     H      0.738650000000     0.589310000000     0.423660000000     0.0409361  
H125     H      0.782660000000     0.629970000000     0.466480000000     0.0530937  
H126     H      0.698800000000     0.624780000000     0.890900000000     0.0387251  
H127     H      0.598700000000     0.469210000000     0.474910000000     0.0622683  
H128     H      0.496650000000     0.575410000000     0.897980000000     0.0561249  
H129     H      0.686880000000     0.709460000000     0.877920000000     0.0545452  
H130     H      0.584530000000     0.563860000000     0.467780000000     0.0419194  
H131     H      0.647860000000     0.745640000000     0.845710000000     0.0236523  
H132     H      0.536440000000     0.341900000000     0.512600000000     0.18097    
H133     H      0.652540000000     0.454360000000     0.599300000000     0.0302263  
H134     H      0.632620000000     0.789820000000     0.744500000000     0.0439837  
H135     H      0.593860000000     0.570550000000     0.642010000000     0.0390907  
H136     H      0.720840000000     0.664460000000     0.714830000000     0.0421971  
H137     H      0.676970000000     0.756510000000     0.713270000000     0.056129   
H138     H      0.761560000000     0.625740000000     0.683390000000     0.0389154  
H139     H      0.531260000000     0.564560000000     0.723010000000     0.0585898  
H140     H      0.613990000000     0.491490000000     0.631230000000     0.0560381  
H141     H      0.802920000000     0.641190000000     0.645210000000     0.05509    
H142     H      0.552300000000     0.605580000000     0.674230000000     0.0423488  
H143     H      0.840240000000     0.599980000000     0.613990000000     0.0266875  
H144     H      0.424430000000     0.495220000000     0.770550000000     0.179682   
N1       N      0.334690000000     0.695450000000     0.357110000000    -0.199276   
N2       N      0.968560000000     0.513230000000     0.004790000000    -0.214911   
N3       N      0.966030000000     0.517930000000     0.106750000000    -0.198286   
N4       N      0.331230000000     0.700610000000     0.255280000000    -0.211767   
N5       N      0.556910000000     0.927610000000     0.257090000000    -0.198118   
N6       N      0.734600000000     0.289320000000     0.106860000000    -0.21777    
N7       N      0.747670000000     0.281800000000     0.006960000000    -0.197543   
N8       N      0.570530000000     0.917670000000     0.357640000000    -0.216408   
N9       N      0.731880000000     0.509250000000     0.005770000000    -0.20005    
N10      N      0.550700000000     0.682850000000     0.353510000000    -0.214586   
N11      N      0.556370000000     0.696860000000     0.252560000000    -0.196518   
N12      N      0.749120000000     0.524710000000     0.104180000000    -0.214788   
N13      N      0.334690000000     0.695450000000     0.857110000000    -0.19928    
N14      N      0.968560000000     0.513230000000     0.504790000000    -0.214942   
N15      N      0.966030000000     0.517930000000     0.606750000000    -0.198286   
N16      N      0.331230000000     0.700610000000     0.755280000000    -0.211766   
N17      N      0.556910000000     0.927610000000     0.757090000000    -0.198153   
N18      N      0.734600000000     0.289320000000     0.606860000000    -0.217769   
N19      N      0.747670000000     0.281800000000     0.506960000000    -0.197594   
N20      N      0.570530000000     0.917670000000     0.857640000000    -0.216405   
N21      N      0.731880000000     0.509250000000     0.505770000000    -0.200154   
N22      N      0.550700000000     0.682850000000     0.853510000000    -0.214587   
N23      N      0.556370000000     0.696860000000     0.752560000000    -0.196518   
N24      N      0.749120000000     0.524710000000     0.604170000000    -0.214872   
O1       O      0.567330000000     0.744630000000     0.320600000000    -0.495111   
O2       O      0.476690000000     0.849020000000     0.278710000000    -0.497869   
O3       O      0.471710000000     0.684230000000     0.332630000000    -0.494552   
O4       O      0.497560000000     0.680670000000     0.286400000000    -0.482779   
O5       O      0.566800000000     0.839430000000     0.334230000000    -0.502267   
O6       O      0.376230000000     0.755980000000     0.289710000000    -0.488267   
O7       O      0.482510000000     0.770130000000     0.305490000000    -0.878589   
O8       O      0.412900000000     0.777010000000     0.336100000000    -0.486209   
O9       O      0.373870000000     0.682600000000     0.321800000000    -0.493928   
O10      O      0.559650000000     0.776670000000     0.275150000000    -0.48818    
O11      O      0.408080000000     0.694220000000     0.275670000000    -0.486119   
O12      O      0.506180000000     0.876970000000     0.325140000000    -0.491822   
O13      O      0.571560000000     0.877790000000     0.289170000000    -0.486546   
O14      O      0.800110000000     0.528050000000     0.036330000000    -0.497269   
O15      O      0.889230000000     0.435080000000     0.085660000000    -0.484476   
O16      O      0.736300000000     0.430830000000     0.026230000000    -0.481008   
O17      O      0.731600000000     0.460790000000     0.071950000000    -0.488024   
O18      O      0.889970000000     0.516260000000     0.025130000000    -0.500445   
O19      O      0.798300000000     0.332980000000     0.074400000000    -0.496483   
O20      O      0.817740000000     0.439620000000     0.055240000000    -0.876411   
O21      O      0.826410000000     0.362640000000     0.028240000000    -0.497016   
O22      O      0.730650000000     0.331400000000     0.038630000000    -0.481958   
O23      O      0.827790000000     0.525590000000     0.082380000000    -0.498237   
O24      O      0.736180000000     0.367730000000     0.084380000000    -0.506648   
O25      O      0.925290000000     0.457560000000     0.039250000000    -0.490918   
O26      O      0.926030000000     0.529120000000     0.071280000000    -0.492298   
O27      O      0.460140000000     0.776900000000     0.380690000000    -0.317944   
O28      O      0.413060000000     0.827110000000     0.395410000000    -0.241425   
O29      O      0.840920000000     0.433250000000     0.130130000000    -0.317587   
O30      O      0.890600000000     0.385780000000     0.144950000000    -0.240927   
O31      O      0.720150000000     0.002490000000     0.272010000000    -0.334886   
O32      O      0.666110000000     0.901870000000     0.260590000000    -0.23798    
O33      O      0.582150000000     0.217740000000     0.016510000000    -0.332206   
O34      O      0.646530000000     0.316670000000     0.004840000000    -0.214714   
O35      O      0.569010000000     0.376130000000     0.003460000000    -0.327087   
O36      O      0.626160000000     0.422740000000     0.035640000000    -0.241507   
O37      O      0.463200000000     0.529030000000     0.264150000000    -0.334457   
O38      O      0.422020000000     0.590210000000     0.256840000000    -0.23609    
O39      O      0.567330000000     0.744630000000     0.820600000000    -0.495098   
O40      O      0.476690000000     0.849020000000     0.778710000000    -0.49794    
O41      O      0.471710000000     0.684230000000     0.832630000000    -0.494548   
O42      O      0.497560000000     0.680670000000     0.786400000000    -0.482774   
O43      O      0.566800000000     0.839430000000     0.834230000000    -0.502266   
O44      O      0.376230000000     0.755980000000     0.789710000000    -0.488265   
O45      O      0.482510000000     0.770130000000     0.805490000000    -0.878579   
O46      O      0.412900000000     0.777010000000     0.836100000000    -0.486209   
O47      O      0.373870000000     0.682600000000     0.821800000000    -0.493928   
O48      O      0.559650000000     0.776670000000     0.775150000000    -0.488155   
O49      O      0.408080000000     0.694220000000     0.775670000000    -0.486118   
O50      O      0.506180000000     0.876970000000     0.825140000000    -0.491837   
O51      O      0.571560000000     0.877790000000     0.789160000000    -0.486615   
O52      O      0.800110000000     0.528050000000     0.536330000000    -0.497292   
O53      O      0.889230000000     0.435080000000     0.585660000000    -0.484477   
O54      O      0.736300000000     0.430830000000     0.526230000000    -0.481022   
O55      O      0.731600000000     0.460790000000     0.571950000000    -0.488062   
O56      O      0.889970000000     0.516260000000     0.525130000000    -0.50047    
O57      O      0.798300000000     0.332980000000     0.574400000000    -0.496487   
O58      O      0.817740000000     0.439620000000     0.555240000000    -0.876413   
O59      O      0.826410000000     0.362640000000     0.528240000000    -0.497029   
O60      O      0.730650000000     0.331400000000     0.538630000000    -0.481961   
O61      O      0.827790000000     0.525590000000     0.582380000000    -0.498279   
O62      O      0.736180000000     0.367730000000     0.584380000000    -0.506651   
O63      O      0.925290000000     0.457560000000     0.539250000000    -0.490921   
O64      O      0.926030000000     0.529120000000     0.571280000000    -0.492302   
O65      O      0.460140000000     0.776900000000     0.880680000000    -0.317814   
O66      O      0.413060000000     0.827110000000     0.895410000000    -0.241339   
O67      O      0.840920000000     0.433250000000     0.630130000000    -0.317588   
O68      O      0.890600000000     0.385780000000     0.644950000000    -0.240928   
O69      O      0.720150000000     0.002490000000     0.772010000000    -0.334888   
O70      O      0.666110000000     0.901870000000     0.760590000000    -0.237968   
O71      O      0.582150000000     0.217740000000     0.516510000000    -0.332236   
O72      O      0.646530000000     0.316670000000     0.504840000000    -0.214738   
O73      O      0.569010000000     0.376130000000     0.503460000000    -0.327091   
O74      O      0.626160000000     0.422740000000     0.535640000000    -0.241487   
O75      O      0.463200000000     0.529030000000     0.764150000000    -0.334457   
O76      O      0.422020000000     0.590210000000     0.756840000000    -0.236091   


