data_structure

_audit_creation_method RASPA-1.0
_audit_creation_date 2023-6-4
_audit_author_name 'Poobodin Mano'

_cell_length_a    23.3823
_cell_length_b    23.9096
_cell_length_c    57.9665
_cell_angle_alpha 90
_cell_angle_beta  90
_cell_angle_gamma 120
_cell_volume      28065.1

_symmetry_cell_setting          triclinic
_symmetry_space_group_name_Hall 'P 1'
_symmetry_space_group_name_H-M  'P 1'
_symmetry_Int_Tables_number     1

_symmetry_equiv_pos_as_xyz 'x,y,z'

loop_
_atom_site_label
_atom_site_type_symbol
_atom_site_fract_x
_atom_site_fract_y
_atom_site_fract_z
_atom_site_charge
C1       C      0.589560000000     0.739300000000     0.322470000000     0.518045   
C2       C      0.589200000000     0.735220000000     0.260510000000     0.520573   
C3       C      0.573560000000     0.896390000000     0.256890000000     0.523875   
C4       C      0.416860000000     0.741210000000     0.323080000000     0.529318   
C5       C      0.410650000000     0.719140000000     0.261270000000     0.523912   
C6       C      0.590060000000     0.906440000000     0.318850000000     0.523588   
C7       C      0.803670000000     0.509000000000     0.072960000000     0.524137   
C8       C      0.798980000000     0.509620000000     0.010650000000     0.521111   
C9       C      0.797980000000     0.342230000000     0.007050000000     0.523259   
C10      C      0.965610000000     0.489570000000     0.072420000000     0.523982   
C11      C      0.970490000000     0.509760000000     0.010490000000     0.528398   
C12      C      0.785050000000     0.332110000000     0.069160000000     0.521028   
C13      C      0.094640000000     0.526500000000     0.967180000000    -0.134046   
C14      C      0.366630000000     0.765390000000     0.354310000000     0.0791372  
C15      C      0.343030000000     0.657720000000     0.348240000000     0.0805803  
C16      C      0.324220000000     0.745820000000     0.373300000000    -0.0986057  
C17      C      0.192680000000     0.669290000000     0.400800000000    -0.0377393  
C18      C      0.148200000000     0.645480000000     0.419200000000    -0.0327187  
C19      C      0.246770000000     0.659200000000     0.400090000000    -0.00797927 
C20      C      0.301550000000     0.636840000000     0.367440000000    -0.0994082  
C21      C      0.157720000000     0.612200000000     0.937500000000    -0.0150765  
C22      C      0.076270000000     0.616420000000     0.964690000000    -0.106876   
C23      C      0.213270000000     0.603930000000     0.936940000000    -0.0328803  
C24      C      0.029950000000     0.589440000000     0.982340000000     0.0821482  
C25      C      0.048360000000     0.500290000000     0.985220000000     0.157711   
C26      C      0.256870000000     0.626540000000     0.918300000000    -0.0379529  
C27      C      0.291590000000     0.681040000000     0.380050000000     0.0523445  
C28      C      0.109240000000     0.584990000000     0.956790000000     0.0670746  
C29      C      0.034660000000     0.435760000000     0.994800000000    -0.21953    
C30      C      0.063260000000     0.485370000000     0.122210000000    -0.134247   
C31      C      0.328980000000     0.722140000000     0.237650000000     0.0796442  
C32      C      0.357950000000     0.641570000000     0.231330000000     0.0781287  
C33      C      0.284460000000     0.698640000000     0.219260000000    -0.0969271  
C34      C      0.170300000000     0.623910000000     0.186850000000    -0.0373891  
C35      C      0.127000000000     0.601750000000     0.168060000000    -0.0334125  
C36      C      0.227860000000     0.618840000000     0.186960000000    -0.00717875 
C37      C      0.312710000000     0.615870000000     0.213170000000    -0.0963024  
C38      C      0.139260000000     0.572570000000     0.149190000000    -0.0156771  
C39      C      0.081150000000     0.592500000000     0.116970000000    -0.108406   
C40      C      0.195650000000     0.566120000000     0.149330000000    -0.0334848  
C41      C      0.039170000000     0.570770000000     0.097930000000     0.0827813  
C42      C      0.019960000000     0.463840000000     0.103170000000     0.154748   
C43      C      0.239840000000     0.589610000000     0.167860000000    -0.0374326  
C44      C      0.275380000000     0.644570000000     0.206710000000     0.050196   
C45      C      0.093750000000     0.549750000000     0.129220000000     0.0672945  
C46      C      0.990150000000     0.393380000000     0.096540000000    -0.216925   
C47      C      0.746890000000     0.189940000000     0.105410000000    -0.134666   
C48      C      0.546690000000     0.932690000000     0.222500000000     0.0774692  
C49      C      0.657370000000     0.985120000000     0.235890000000     0.0785392  
C50      C      0.565090000000     0.974730000000     0.203690000000    -0.097521   
C51      C      0.689720000000     0.135950000000     0.185090000000    -0.0378051  
C52      C      0.709490000000     0.178730000000     0.166450000000    -0.033502   
C53      C      0.651270000000     0.069020000000     0.181450000000    -0.00787862 
C54      C      0.677230000000     0.028670000000     0.217520000000    -0.0981402  
C55      C      0.692120000000     0.155230000000     0.143830000000    -0.0156285  
C56      C      0.706430000000     0.253650000000     0.123510000000    -0.106801   
C57      C      0.653630000000     0.088330000000     0.140190000000    -0.0335251  
C58      C      0.728900000000     0.295550000000     0.104690000000     0.0788449  
C59      C      0.769720000000     0.232890000000     0.086610000000     0.152765   
C60      C      0.632920000000     0.045630000000     0.158860000000    -0.0379543  
C61      C      0.630890000000     0.023640000000     0.201160000000     0.0510172  
C62      C      0.715400000000     0.200280000000     0.123990000000     0.0661344  
C63      C      0.801100000000     0.216220000000     0.066880000000    -0.216879   
C64      C      0.689180000000     0.228610000000     0.962040000000    -0.136036   
C65      C      0.664300000000     0.962070000000     0.349620000000     0.0788221  
C66      C      0.577910000000     0.983450000000     0.341170000000     0.0800996  
C67      C      0.685570000000     0.006140000000     0.367820000000    -0.096853   
C68      C      0.700630000000     0.073870000000     0.413000000000    -0.0375153  
C69      C      0.721220000000     0.117080000000     0.931490000000    -0.0333817  
C70      C      0.672380000000     0.084480000000     0.393190000000    -0.00723406 
C71      C      0.596940000000     0.026820000000     0.359600000000    -0.0971908  
C72      C      0.712660000000     0.171030000000     0.930850000000    -0.0162624  
C73      C      0.799470000000     0.247260000000     0.957850000000    -0.10974    
C74      C      0.683710000000     0.181530000000     0.911370000000    -0.0332136  
C75      C      0.819050000000     0.289800000000     0.976440000000     0.0812593  
C76      C      0.709500000000     0.271010000000     0.981020000000     0.156613   
C77      C      0.664410000000     0.139130000000     0.392630000000    -0.0375554  
C78      C      0.651460000000     0.038780000000     0.373280000000     0.0507269  
C79      C      0.734080000000     0.216330000000     0.950510000000     0.0680211  
C80      C      0.657660000000     0.282500000000     0.992160000000    -0.220671   
C81      C      0.703520000000     0.713700000000     0.359730000000    -0.133877   
C82      C      0.804160000000     0.600860000000     0.991840000000     0.0782306  
C83      C      0.741600000000     0.496530000000     0.975380000000     0.0780634  
C84      C      0.786530000000     0.627730000000     0.973650000000    -0.0978086  
C85      C      0.700340000000     0.655130000000     0.939950000000    -0.038011   
C86      C      0.679430000000     0.677790000000     0.921350000000    -0.0335739  
C87      C      0.727690000000     0.615300000000     0.936120000000    -0.00798199 
C88      C      0.724130000000     0.521920000000     0.956770000000    -0.0982275  
C89      C      0.686710000000     0.662050000000     0.398590000000    -0.0155397  
C90      C      0.599110000000     0.674660000000     0.378630000000    -0.106432   
C91      C      0.715420000000     0.623400000000     0.394770000000    -0.0335923  
C92      C      0.576410000000     0.693100000000     0.359470000000     0.0789373  
C93      C      0.680120000000     0.732700000000     0.340590000000     0.153148   
C94      C      0.735190000000     0.599820000000     0.413350000000    -0.0380662  
C95      C      0.746450000000     0.588130000000     0.955780000000     0.0509155  
C96      C      0.663040000000     0.684430000000     0.378830000000     0.0657881  
C97      C      0.726740000000     0.761580000000     0.320300000000    -0.217596   
C98      C      0.622990000000     0.626420000000     0.224860000000    -0.134676   
C99      C      0.825380000000     0.567480000000     0.108100000000     0.0777853  
C100     C      0.716620000000     0.512760000000     0.092880000000     0.0786927  
C101     C      0.804250000000     0.589020000000     0.126850000000    -0.0980308  
C102     C      0.675590000000     0.623940000000     0.144450000000    -0.0377251  
C103     C      0.655070000000     0.646870000000     0.163020000000    -0.0333938  
C104     C      0.715080000000     0.595790000000     0.148190000000    -0.00798296 
C105     C      0.694000000000     0.534240000000     0.111260000000    -0.0984576  
C106     C      0.672900000000     0.641170000000     0.185670000000    -0.0156046  
C107     C      0.658580000000     0.726640000000     0.205040000000    -0.106923   
C108     C      0.711910000000     0.612520000000     0.189420000000    -0.0334812  
C109     C      0.638510000000     0.748660000000     0.223900000000     0.0798252  
C110     C      0.602820000000     0.649270000000     0.243750000000     0.154303   
C111     C      0.733140000000     0.590400000000     0.170830000000    -0.037938   
C112     C      0.738010000000     0.572690000000     0.128510000000     0.0512594  
C113     C      0.650900000000     0.665000000000     0.205400000000     0.0667027  
C114     C      0.576240000000     0.605200000000     0.264560000000    -0.217507   
C115     C      0.589560000000     0.739300000000     0.822470000000     0.518332   
C116     C      0.589200000000     0.735220000000     0.760510000000     0.520573   
C117     C      0.573560000000     0.896390000000     0.756890000000     0.523871   
C118     C      0.416860000000     0.741210000000     0.823080000000     0.529329   
C119     C      0.410650000000     0.719140000000     0.761270000000     0.523969   
C120     C      0.590060000000     0.906440000000     0.818850000000     0.523581   
C121     C      0.803670000000     0.509000000000     0.572960000000     0.524139   
C122     C      0.798980000000     0.509620000000     0.510650000000     0.521163   
C123     C      0.797980000000     0.342230000000     0.507050000000     0.523319   
C124     C      0.965610000000     0.489570000000     0.572420000000     0.524139   
C125     C      0.970490000000     0.509760000000     0.510490000000     0.528459   
C126     C      0.785050000000     0.332110000000     0.569160000000     0.521031   
C127     C      0.094640000000     0.526500000000     0.467180000000    -0.134071   
C128     C      0.366630000000     0.765390000000     0.854310000000     0.0791384  
C129     C      0.343030000000     0.657720000000     0.848240000000     0.0805822  
C130     C      0.324220000000     0.745820000000     0.873300000000    -0.0986062  
C131     C      0.192680000000     0.669290000000     0.900800000000    -0.0377355  
C132     C      0.148200000000     0.645480000000     0.919200000000    -0.0327239  
C133     C      0.246770000000     0.659200000000     0.900090000000    -0.00798099 
C134     C      0.301550000000     0.636840000000     0.867440000000    -0.0994093  
C135     C      0.157720000000     0.612200000000     0.437500000000    -0.0150884  
C136     C      0.076270000000     0.616420000000     0.464680000000    -0.1069     
C137     C      0.213270000000     0.603930000000     0.436940000000    -0.0328775  
C138     C      0.029950000000     0.589440000000     0.482340000000     0.082111   
C139     C      0.048360000000     0.500290000000     0.485220000000     0.157724   
C140     C      0.256870000000     0.626540000000     0.418300000000    -0.0379572  
C141     C      0.291590000000     0.681040000000     0.880050000000     0.0523464  
C142     C      0.109240000000     0.584990000000     0.456790000000     0.0671048  
C143     C      0.034660000000     0.435760000000     0.494800000000    -0.219618   
C144     C      0.063260000000     0.485370000000     0.622210000000    -0.134193   
C145     C      0.328980000000     0.722140000000     0.737650000000     0.0796533  
C146     C      0.357950000000     0.641570000000     0.731330000000     0.0781285  
C147     C      0.284460000000     0.698640000000     0.719260000000    -0.0969499  
C148     C      0.170300000000     0.623910000000     0.686850000000    -0.0374409  
C149     C      0.127000000000     0.601750000000     0.668060000000    -0.0333917  
C150     C      0.227860000000     0.618840000000     0.686960000000    -0.00715783 
C151     C      0.312710000000     0.615870000000     0.713170000000    -0.0963048  
C152     C      0.139260000000     0.572570000000     0.649190000000    -0.0156836  
C153     C      0.081150000000     0.592500000000     0.616970000000    -0.108352   
C154     C      0.195650000000     0.566120000000     0.649330000000    -0.0334749  
C155     C      0.039170000000     0.570770000000     0.597930000000     0.0827619  
C156     C      0.019960000000     0.463840000000     0.603170000000     0.154707   
C157     C      0.239840000000     0.589610000000     0.667860000000    -0.037442   
C158     C      0.275380000000     0.644570000000     0.706710000000     0.0502009  
C159     C      0.093750000000     0.549750000000     0.629230000000     0.0672339  
C160     C      0.990150000000     0.393380000000     0.596540000000    -0.216902   
C161     C      0.746890000000     0.189940000000     0.605410000000    -0.134668   
C162     C      0.546690000000     0.932690000000     0.722500000000     0.0774666  
C163     C      0.657370000000     0.985120000000     0.735890000000     0.0785364  
C164     C      0.565090000000     0.974730000000     0.703690000000    -0.0975159  
C165     C      0.689720000000     0.135950000000     0.685090000000    -0.0378661  
C166     C      0.709490000000     0.178730000000     0.666450000000    -0.033484   
C167     C      0.651270000000     0.069020000000     0.681450000000    -0.00785052 
C168     C      0.677230000000     0.028670000000     0.717520000000    -0.098135   
C169     C      0.692120000000     0.155230000000     0.643830000000    -0.0156401  
C170     C      0.706430000000     0.253650000000     0.623510000000    -0.106804   
C171     C      0.653630000000     0.088330000000     0.640190000000    -0.0335135  
C172     C      0.728900000000     0.295550000000     0.604690000000     0.0788469  
C173     C      0.769720000000     0.232890000000     0.586610000000     0.15277    
C174     C      0.632920000000     0.045630000000     0.658860000000    -0.0379675  
C175     C      0.630890000000     0.023640000000     0.701160000000     0.0510057  
C176     C      0.715400000000     0.200280000000     0.623990000000     0.0661385  
C177     C      0.801100000000     0.216220000000     0.566880000000    -0.216885   
C178     C      0.689180000000     0.228610000000     0.462040000000    -0.136047   
C179     C      0.664300000000     0.962070000000     0.849620000000     0.0788219  
C180     C      0.577910000000     0.983450000000     0.841170000000     0.0800995  
C181     C      0.685570000000     0.006140000000     0.867820000000    -0.0968526  
C182     C      0.700630000000     0.073870000000     0.913000000000    -0.0375131  
C183     C      0.721220000000     0.117080000000     0.431490000000    -0.0333824  
C184     C      0.672380000000     0.084480000000     0.893190000000    -0.00723396 
C185     C      0.596940000000     0.026820000000     0.859600000000    -0.0971907  
C186     C      0.712660000000     0.171030000000     0.430850000000    -0.0162657  
C187     C      0.799470000000     0.247260000000     0.457850000000    -0.109745   
C188     C      0.683710000000     0.181530000000     0.411370000000    -0.033213   
C189     C      0.819050000000     0.289800000000     0.476440000000     0.0812536  
C190     C      0.709500000000     0.271010000000     0.481020000000     0.156622   
C191     C      0.664410000000     0.139130000000     0.892630000000    -0.0375542  
C192     C      0.651460000000     0.038780000000     0.873280000000     0.0507275  
C193     C      0.734080000000     0.216330000000     0.450510000000     0.0680222  
C194     C      0.657660000000     0.282500000000     0.492160000000    -0.220758   
C195     C      0.703520000000     0.713700000000     0.859730000000    -0.133886   
C196     C      0.804160000000     0.600860000000     0.491840000000     0.0781359  
C197     C      0.741600000000     0.496530000000     0.475380000000     0.0780223  
C198     C      0.786530000000     0.627730000000     0.473650000000    -0.0977677  
C199     C      0.700340000000     0.655130000000     0.439950000000    -0.0379606  
C200     C      0.679430000000     0.677790000000     0.421350000000    -0.0335893  
C201     C      0.727690000000     0.615300000000     0.436120000000    -0.0079914  
C202     C      0.724130000000     0.521920000000     0.456770000000    -0.0981428  
C203     C      0.686710000000     0.662050000000     0.898590000000    -0.0155496  
C204     C      0.599110000000     0.674660000000     0.878630000000    -0.10644    
C205     C      0.715420000000     0.623400000000     0.894770000000    -0.0335847  
C206     C      0.576410000000     0.693100000000     0.859470000000     0.078948   
C207     C      0.680120000000     0.732700000000     0.840590000000     0.153167   
C208     C      0.735190000000     0.599820000000     0.913350000000    -0.0380703  
C209     C      0.746450000000     0.588130000000     0.455780000000     0.0508729  
C210     C      0.663040000000     0.684430000000     0.878830000000     0.0657954  
C211     C      0.726740000000     0.761580000000     0.820300000000    -0.217598   
C212     C      0.622990000000     0.626420000000     0.724860000000    -0.134696   
C213     C      0.825380000000     0.567480000000     0.608100000000     0.077806   
C214     C      0.716620000000     0.512760000000     0.592880000000     0.0786904  
C215     C      0.804250000000     0.589020000000     0.626840000000    -0.0979877  
C216     C      0.675590000000     0.623940000000     0.644450000000    -0.0377321  
C217     C      0.655070000000     0.646870000000     0.663020000000    -0.0333827  
C218     C      0.715080000000     0.595790000000     0.648190000000    -0.0079721  
C219     C      0.694000000000     0.534240000000     0.611260000000    -0.0984418  
C220     C      0.672900000000     0.641170000000     0.685670000000    -0.0156245  
C221     C      0.658580000000     0.726640000000     0.705040000000    -0.107021   
C222     C      0.711910000000     0.612520000000     0.689420000000    -0.0334708  
C223     C      0.638510000000     0.748660000000     0.723900000000     0.0798607  
C224     C      0.602820000000     0.649270000000     0.743750000000     0.15431    
C225     C      0.733140000000     0.590400000000     0.670830000000    -0.0379468  
C226     C      0.738010000000     0.572690000000     0.628510000000     0.0512328  
C227     C      0.650900000000     0.665000000000     0.705400000000     0.066747   
C228     C      0.576240000000     0.605200000000     0.764560000000    -0.217509   
Fe1      Fe     0.609980000000     0.832040000000     0.288860000000     1.34765    
Fe2      Fe     0.484220000000     0.827430000000     0.289550000000     1.35485    
Fe3      Fe     0.490040000000     0.709740000000     0.292980000000     1.35098    
Fe4      Fe     0.771690000000     0.412200000000     0.039980000000     1.3474     
Fe5      Fe     0.891140000000     0.405400000000     0.039370000000     1.34925    
Fe6      Fe     0.898140000000     0.529180000000     0.042320000000     1.35202    
Fe7      Fe     0.609980000000     0.832040000000     0.788860000000     1.34756    
Fe8      Fe     0.484220000000     0.827430000000     0.789550000000     1.35487    
Fe9      Fe     0.490040000000     0.709740000000     0.792980000000     1.35124    
Fe10     Fe     0.771690000000     0.412200000000     0.539980000000     1.34741    
Fe11     Fe     0.891140000000     0.405400000000     0.539370000000     1.34927    
Fe12     Fe     0.898140000000     0.529180000000     0.542320000000     1.35204    
H1       H      0.349290000000     0.621940000000     0.338830000000     0.0194723  
H2       H      0.006310000000     0.616410000000     0.987760000000     0.0212003  
H3       H      0.298780000000     0.618860000000     0.918150000000     0.0369208  
H4       H      0.105560000000     0.651910000000     0.418750000000     0.0350956  
H5       H      0.086540000000     0.662310000000     0.957490000000     0.0539522  
H6       H      0.183800000000     0.693980000000     0.386790000000     0.0371538  
H7       H      0.118130000000     0.500250000000     0.960880000000     0.0596764  
H8       H      0.276690000000     0.586250000000     0.372210000000     0.0526922  
H9       H      0.317590000000     0.781200000000     0.382800000000     0.0529313  
H10      H      0.223330000000     0.580060000000     0.950920000000     0.0339476  
H11      H      0.391550000000     0.816110000000     0.349670000000     0.021837   
H12      H      0.981050000000     0.400310000000     0.994040000000     0.0841859  
H13      H      0.059690000000     0.414610000000     0.984740000000     0.0672057  
H14      H      0.053060000000     0.441700000000     0.012800000000     0.0800946  
H15      H      0.385900000000     0.617970000000     0.235620000000     0.021489   
H16      H      0.031030000000     0.606200000000     0.089110000000     0.0195691  
H17      H      0.284000000000     0.585820000000     0.166920000000     0.0359736  
H18      H      0.083390000000     0.606680000000     0.168380000000     0.0357715  
H19      H      0.104300000000     0.642870000000     0.121940000000     0.054956   
H20      H      0.158110000000     0.644530000000     0.201350000000     0.0358092  
H21      H      0.073020000000     0.451950000000     0.131710000000     0.060605   
H22      H      0.306840000000     0.573270000000     0.204460000000     0.0509887  
H23      H      0.258300000000     0.723780000000     0.214740000000     0.051129   
H24      H      0.206310000000     0.544220000000     0.134820000000     0.0351648  
H25      H      0.334450000000     0.764200000000     0.246730000000     0.0202724  
H26      H      0.000530000000     0.389090000000     0.078130000000     0.0732348  
H27      H      0.011290000000     0.368640000000     0.106720000000     0.0672051  
H28      H      0.936110000000     0.367270000000     0.099810000000     0.0889037  
H29      H      0.694840000000     0.990490000000     0.248140000000     0.0203465  
H30      H      0.721190000000     0.336650000000     0.105340000000     0.0251382  
H31      H      0.603570000000     0.994230000000     0.155600000000     0.0369522  
H32      H      0.739440000000     0.230100000000     0.169670000000     0.0356594  
H33      H      0.681750000000     0.262850000000     0.137590000000     0.0548097  
H34      H      0.704130000000     0.155160000000     0.202380000000     0.0368999  
H35      H      0.754070000000     0.148500000000     0.105680000000     0.0597394  
H36      H      0.728730000000     0.065550000000     0.215970000000     0.0521298  
H37      H      0.527860000000     0.969540000000     0.191390000000     0.0525055  
H38      H      0.639350000000     0.069100000000     0.122900000000     0.0348712  
H39      H      0.495130000000     0.895690000000     0.223930000000     0.0239289  
H40      H      0.854920000000     0.251300000000     0.066220000000     0.0763104  
H41      H      0.795250000000     0.167400000000     0.068850000000     0.0668388  
H42      H      0.777070000000     0.215730000000     0.050300000000     0.0842859  
H43      H      0.535180000000     0.975290000000     0.331190000000     0.0201197  
H44      H      0.870510000000     0.312210000000     0.981460000000     0.0141228  
H45      H      0.644140000000     0.149890000000     0.377600000000     0.0357113  
H46      H      0.742890000000     0.107810000000     0.946480000000     0.0346714  
H47      H      0.835570000000     0.238940000000     0.949150000000     0.0540456  
H48      H      0.706230000000     0.031730000000     0.414440000000     0.036101   
H49      H      0.638210000000     0.204640000000     0.956310000000     0.0609135  
H50      H      0.568060000000     0.049720000000     0.363280000000     0.0511753  
H51      H      0.728970000000     0.014690000000     0.377390000000     0.0511947  
H52      H      0.677140000000     0.223250000000     0.910500000000     0.0354305  
H53      H      0.691950000000     0.937650000000     0.346190000000     0.0216388  
H54      H      0.675380000000     0.334970000000     0.993190000000     0.0853862  
H55      H      0.611040000000     0.260710000000     0.982050000000     0.0683303  
H56      H      0.645320000000     0.260340000000     0.009590000000     0.0814806  
H57      H      0.723170000000     0.444960000000     0.975420000000     0.0196546  
H58      H      0.526200000000     0.684290000000     0.360300000000     0.0250119  
H59      H      0.756440000000     0.569450000000     0.409940000000     0.0370137  
H60      H      0.657700000000     0.707750000000     0.924730000000     0.0356619  
H61      H      0.566130000000     0.651640000000     0.393080000000     0.0543631  
H62      H      0.693700000000     0.667440000000     0.957340000000     0.0366207  
H63      H      0.753380000000     0.721520000000     0.359760000000     0.0598378  
H64      H      0.692650000000     0.489710000000     0.943350000000     0.0517421  
H65      H      0.804960000000     0.679270000000     0.973390000000     0.0519599  
H66      H      0.721190000000     0.610220000000     0.377400000000     0.0344398  
H67      H      0.835760000000     0.633120000000     0.005260000000     0.0202762  
H68      H      0.741210000000     0.813150000000     0.318180000000     0.0811162  
H69      H      0.772980000000     0.759850000000     0.322690000000     0.0675921  
H70      H      0.703140000000     0.733950000000     0.304330000000     0.0817781  
H71      H      0.680980000000     0.482810000000     0.079910000000     0.0198561  
H72      H      0.645100000000     0.796800000000     0.222580000000     0.0252782  
H73      H      0.763210000000     0.568520000000     0.174180000000     0.0365498  
H74      H      0.624700000000     0.668430000000     0.159710000000     0.0357318  
H75      H      0.680670000000     0.758140000000     0.190300000000     0.0547535  
H76      H      0.661400000000     0.629070000000     0.127130000000     0.0365712  
H77      H      0.616870000000     0.578380000000     0.225270000000     0.0601048  
H78      H      0.642230000000     0.520170000000     0.112100000000     0.051931   
H79      H      0.839820000000     0.619070000000     0.139800000000     0.0520458  
H80      H      0.726690000000     0.607970000000     0.206710000000     0.034297   
H81      H      0.877200000000     0.581460000000     0.107410000000     0.0233209  
H82      H      0.522530000000     0.587000000000     0.266490000000     0.0808778  
H83      H      0.582660000000     0.562350000000     0.262970000000     0.0675208  
H84      H      0.603340000000     0.631200000000     0.280370000000     0.0818132  
H85      H      0.349290000000     0.621940000000     0.838830000000     0.0194729  
H86      H      0.006310000000     0.616410000000     0.487760000000     0.0211903  
H87      H      0.298780000000     0.618860000000     0.418150000000     0.0369185  
H88      H      0.105560000000     0.651910000000     0.918750000000     0.0350963  
H89      H      0.086540000000     0.662310000000     0.457490000000     0.0539685  
H90      H      0.183800000000     0.693980000000     0.886790000000     0.0371534  
H91      H      0.118130000000     0.500250000000     0.460880000000     0.0596787  
H92      H      0.276690000000     0.586250000000     0.872210000000     0.0526931  
H93      H      0.317590000000     0.781200000000     0.882800000000     0.0529333  
H94      H      0.223330000000     0.580060000000     0.450920000000     0.0339399  
H95      H      0.391550000000     0.816110000000     0.849670000000     0.021837   
H96      H      0.981050000000     0.400310000000     0.494040000000     0.0841862  
H97      H      0.059690000000     0.414610000000     0.484740000000     0.0672135  
H98      H      0.053060000000     0.441700000000     0.512800000000     0.0801544  
H99      H      0.385900000000     0.617970000000     0.735620000000     0.0214829  
H100     H      0.031030000000     0.606200000000     0.589110000000     0.0195829  
H101     H      0.284000000000     0.585820000000     0.666920000000     0.0359774  
H102     H      0.083390000000     0.606680000000     0.668380000000     0.0357638  
H103     H      0.104300000000     0.642870000000     0.621940000000     0.0549451  
H104     H      0.158110000000     0.644530000000     0.701340000000     0.0358377  
H105     H      0.073020000000     0.451950000000     0.631710000000     0.0605921  
H106     H      0.306840000000     0.573270000000     0.704460000000     0.0509891  
H107     H      0.258300000000     0.723780000000     0.714750000000     0.0511419  
H108     H      0.206310000000     0.544220000000     0.634820000000     0.0351678  
H109     H      0.334450000000     0.764200000000     0.746730000000     0.0202663  
H110     H      0.000530000000     0.389090000000     0.578130000000     0.0732388  
H111     H      0.011290000000     0.368640000000     0.606720000000     0.0672027  
H112     H      0.936110000000     0.367270000000     0.599810000000     0.0888988  
H113     H      0.694840000000     0.990490000000     0.748140000000     0.0203466  
H114     H      0.721190000000     0.336650000000     0.605340000000     0.025138   
H115     H      0.603570000000     0.994230000000     0.655600000000     0.0369574  
H116     H      0.739440000000     0.230100000000     0.669660000000     0.0356574  
H117     H      0.681750000000     0.262850000000     0.637590000000     0.0548098  
H118     H      0.704130000000     0.155160000000     0.702370000000     0.0369348  
H119     H      0.754070000000     0.148500000000     0.605680000000     0.0597426  
H120     H      0.728730000000     0.065550000000     0.715970000000     0.0521282  
H121     H      0.527860000000     0.969540000000     0.691390000000     0.0525046  
H122     H      0.639350000000     0.069100000000     0.622900000000     0.0348719  
H123     H      0.495130000000     0.895690000000     0.723930000000     0.0239284  
H124     H      0.854920000000     0.251300000000     0.566220000000     0.0763169  
H125     H      0.795250000000     0.167400000000     0.568850000000     0.0668471  
H126     H      0.777070000000     0.215730000000     0.550300000000     0.0842963  
H127     H      0.535180000000     0.975290000000     0.831190000000     0.0201197  
H128     H      0.870510000000     0.312210000000     0.481460000000     0.0141081  
H129     H      0.644140000000     0.149890000000     0.877600000000     0.0357112  
H130     H      0.742890000000     0.107810000000     0.446480000000     0.0346646  
H131     H      0.835570000000     0.238940000000     0.449150000000     0.0540429  
H132     H      0.706230000000     0.031730000000     0.914440000000     0.0361039  
H133     H      0.638210000000     0.204640000000     0.456310000000     0.0609113  
H134     H      0.568060000000     0.049720000000     0.863280000000     0.0511759  
H135     H      0.728970000000     0.014690000000     0.877390000000     0.0511958  
H136     H      0.677140000000     0.223250000000     0.410500000000     0.0354297  
H137     H      0.691950000000     0.937650000000     0.846190000000     0.0216411  
H138     H      0.675380000000     0.334970000000     0.493190000000     0.0853856  
H139     H      0.611040000000     0.260710000000     0.482050000000     0.0683376  
H140     H      0.645320000000     0.260340000000     0.509590000000     0.0815394  
H141     H      0.723170000000     0.444960000000     0.475420000000     0.0196538  
H142     H      0.526200000000     0.684290000000     0.860300000000     0.025008   
H143     H      0.756440000000     0.569450000000     0.909940000000     0.037016   
H144     H      0.657700000000     0.707750000000     0.424740000000     0.0356582  
H145     H      0.566130000000     0.651640000000     0.893080000000     0.0543659  
H146     H      0.693700000000     0.667440000000     0.457350000000     0.0365804  
H147     H      0.753380000000     0.721520000000     0.859760000000     0.0598402  
H148     H      0.692650000000     0.489710000000     0.443340000000     0.0516918  
H149     H      0.804960000000     0.679270000000     0.473390000000     0.0519376  
H150     H      0.721190000000     0.610220000000     0.877400000000     0.0344376  
H151     H      0.835760000000     0.633120000000     0.505260000000     0.0203407  
H152     H      0.741210000000     0.813150000000     0.818180000000     0.0811217  
H153     H      0.772980000000     0.759850000000     0.822690000000     0.0675914  
H154     H      0.703140000000     0.733950000000     0.804330000000     0.0817711  
H155     H      0.680980000000     0.482810000000     0.579910000000     0.0198624  
H156     H      0.645100000000     0.796800000000     0.722580000000     0.0252653  
H157     H      0.763210000000     0.568520000000     0.674180000000     0.0365496  
H158     H      0.624700000000     0.668430000000     0.659710000000     0.0357312  
H159     H      0.680670000000     0.758140000000     0.690310000000     0.0548103  
H160     H      0.661400000000     0.629070000000     0.627130000000     0.0365771  
H161     H      0.616870000000     0.578380000000     0.725270000000     0.0601093  
H162     H      0.642230000000     0.520170000000     0.612100000000     0.0519303  
H163     H      0.839820000000     0.619070000000     0.639800000000     0.0520082  
H164     H      0.726690000000     0.607970000000     0.706710000000     0.0342931  
H165     H      0.877200000000     0.581460000000     0.607410000000     0.0233155  
H166     H      0.522530000000     0.587000000000     0.766490000000     0.0808777  
H167     H      0.582660000000     0.562350000000     0.762970000000     0.0675203  
H168     H      0.603340000000     0.631200000000     0.780370000000     0.0818077  
N1       N      0.016190000000     0.532430000000     0.992870000000    -0.229516   
N2       N      0.375520000000     0.721540000000     0.341780000000    -0.217826   
N3       N      0.007920000000     0.507120000000     0.091050000000    -0.228354   
N4       N      0.365830000000     0.694150000000     0.243550000000    -0.215811   
N5       N      0.761380000000     0.286540000000     0.086510000000    -0.228741   
N6       N      0.592490000000     0.937860000000     0.238470000000    -0.216665   
N7       N      0.774870000000     0.301170000000     0.988340000000    -0.22986    
N8       N      0.610890000000     0.950810000000     0.336390000000    -0.216102   
N9       N      0.616020000000     0.722210000000     0.340580000000    -0.227927   
N10      N      0.781550000000     0.535670000000     0.992750000000    -0.2158     
N11      N      0.609930000000     0.710550000000     0.243010000000    -0.228851   
N12      N      0.781910000000     0.529650000000     0.091240000000    -0.217014   
N13      N      0.016190000000     0.532430000000     0.492870000000    -0.229548   
N14      N      0.375520000000     0.721540000000     0.841780000000    -0.217828   
N15      N      0.007920000000     0.507120000000     0.591040000000    -0.228424   
N16      N      0.365830000000     0.694150000000     0.743550000000    -0.21583    
N17      N      0.761380000000     0.286540000000     0.586510000000    -0.228741   
N18      N      0.592490000000     0.937860000000     0.738470000000    -0.216664   
N19      N      0.774870000000     0.301170000000     0.488340000000    -0.229897   
N20      N      0.610890000000     0.950810000000     0.836390000000    -0.2161     
N21      N      0.616020000000     0.722210000000     0.840580000000    -0.227976   
N22      N      0.781550000000     0.535670000000     0.492750000000    -0.215813   
N23      N      0.609930000000     0.710550000000     0.743010000000    -0.228862   
N24      N      0.781910000000     0.529650000000     0.591240000000    -0.217016   
O1       O      0.551470000000     0.699480000000     0.276360000000    -0.501743   
O2       O      0.451430000000     0.800100000000     0.318210000000    -0.506099   
O3       O      0.609000000000     0.794760000000     0.261530000000    -0.501666   
O4       O      0.625370000000     0.776480000000     0.306530000000    -0.498769   
O5       O      0.449350000000     0.698060000000     0.265330000000    -0.502033   
O6       O      0.545810000000     0.900810000000     0.304830000000    -0.49455    
O7       O      0.527820000000     0.789780000000     0.290480000000    -0.872876   
O8       O      0.513560000000     0.857570000000     0.260750000000    -0.503755   
O9       O      0.615700000000     0.898640000000     0.271100000000    -0.498186   
O10      O      0.528110000000     0.716100000000     0.320850000000    -0.50087    
O11      O      0.615840000000     0.871690000000     0.315990000000    -0.50415    
O12      O      0.412600000000     0.762670000000     0.274270000000    -0.496916   
O13      O      0.419380000000     0.700300000000     0.309940000000    -0.502304   
O14      O      0.839940000000     0.545270000000     0.025890000000    -0.49268    
O15      O      0.925670000000     0.431390000000     0.067920000000    -0.508234   
O16      O      0.772910000000     0.449400000000     0.012670000000    -0.506381   
O17      O      0.763900000000     0.472160000000     0.057720000000    -0.497466   
O18      O      0.935470000000     0.535060000000     0.014420000000    -0.50444    
O19      O      0.825890000000     0.334140000000     0.054440000000    -0.503627   
O20      O      0.853740000000     0.449020000000     0.040540000000    -0.873019   
O21      O      0.859050000000     0.376320000000     0.010730000000    -0.506987   
O22      O      0.759070000000     0.343360000000     0.021950000000    -0.501577   
O23      O      0.864140000000     0.528740000000     0.070370000000    -0.505016   
O24      O      0.765670000000     0.372510000000     0.067310000000    -0.500125   
O25      O      0.965360000000     0.466160000000     0.024070000000    -0.505611   
O26      O      0.966690000000     0.532220000000     0.059120000000    -0.494894   
O27      O      0.551470000000     0.699480000000     0.776360000000    -0.501787   
O28      O      0.451430000000     0.800100000000     0.818210000000    -0.506103   
O29      O      0.609000000000     0.794760000000     0.761530000000    -0.501671   
O30      O      0.625370000000     0.776480000000     0.806540000000    -0.498865   
O31      O      0.449350000000     0.698060000000     0.765340000000    -0.502223   
O32      O      0.545810000000     0.900810000000     0.804830000000    -0.494549   
O33      O      0.527820000000     0.789780000000     0.790480000000    -0.872899   
O34      O      0.513560000000     0.857570000000     0.760750000000    -0.503756   
O35      O      0.615700000000     0.898640000000     0.771100000000    -0.498172   
O36      O      0.528110000000     0.716100000000     0.820850000000    -0.500997   
O37      O      0.615840000000     0.871690000000     0.815990000000    -0.504127   
O38      O      0.412600000000     0.762670000000     0.774270000000    -0.496916   
O39      O      0.419380000000     0.700300000000     0.809940000000    -0.502317   
O40      O      0.839940000000     0.545270000000     0.525890000000    -0.492684   
O41      O      0.925670000000     0.431390000000     0.567920000000    -0.508279   
O42      O      0.772910000000     0.449400000000     0.512670000000    -0.506373   
O43      O      0.763900000000     0.472160000000     0.557720000000    -0.497464   
O44      O      0.935470000000     0.535060000000     0.514420000000    -0.504436   
O45      O      0.825890000000     0.334140000000     0.554440000000    -0.503627   
O46      O      0.853740000000     0.449020000000     0.540540000000    -0.873031   
O47      O      0.859050000000     0.376320000000     0.510730000000    -0.506983   
O48      O      0.759070000000     0.343360000000     0.521950000000    -0.501579   
O49      O      0.864140000000     0.528740000000     0.570370000000    -0.50502    
O50      O      0.765670000000     0.372510000000     0.567310000000    -0.500127   
O51      O      0.965360000000     0.466160000000     0.524070000000    -0.505613   
O52      O      0.966690000000     0.532220000000     0.559120000000    -0.49493    


