data_structure

_audit_creation_method RASPA-1.0
_audit_creation_date 2023-5-22
_audit_author_name 'Poobodin Mano'

_cell_length_a    27.8288
_cell_length_b    27.829
_cell_length_c    27.8282
_cell_angle_alpha 90.1045
_cell_angle_beta  90.0001
_cell_angle_gamma 89.9654
_cell_volume      21551.4

_symmetry_cell_setting          triclinic
_symmetry_space_group_name_Hall 'P 1'
_symmetry_space_group_name_H-M  'P 1'
_symmetry_Int_Tables_number     1

_symmetry_equiv_pos_as_xyz 'x,y,z'

loop_
_atom_site_label
_atom_site_type_symbol
_atom_site_fract_x
_atom_site_fract_y
_atom_site_fract_z
_atom_site_charge
C1       C      0.235620000000     0.607470000000     0.326250000000     0.475863   
C2       C      0.323590000000     0.609860000000     0.231830000000     0.480845   
C3       C      0.236890000000     0.533120000000     0.144880000000     0.479201   
C4       C      0.232230000000     0.463300000000     0.323000000000     0.48095    
C5       C      0.326650000000     0.465720000000     0.235070000000     0.475889   
C6       C      0.145380000000     0.540090000000     0.236400000000     0.47913    
C7       C      0.757060000000     0.607380000000     0.235390000000     0.475807   
C8       C      0.851490000000     0.609620000000     0.323370000000     0.481026   
C9       C      0.938270000000     0.532880000000     0.236360000000     0.479427   
C10      C      0.760010000000     0.463210000000     0.231550000000     0.48096    
C11      C      0.847970000000     0.465490000000     0.325950000000     0.475627   
C12      C      0.846750000000     0.540060000000     0.144910000000     0.479298   
C13      C      0.612660000000     0.842710000000     0.326320000000     0.475884   
C14      C      0.614980000000     0.754640000000     0.231840000000     0.480896   
C15      C      0.538200000000     0.841440000000     0.145110000000     0.479447   
C16      C      0.468500000000     0.846320000000     0.323410000000     0.481125   
C17      C      0.470830000000     0.751830000000     0.235390000000     0.475759   
C18      C      0.545310000000     0.932980000000     0.236650000000     0.479248   
C19      C      0.470970000000     0.230550000000     0.325840000000     0.475608   
C20      C      0.468730000000     0.318460000000     0.231500000000     0.480788   
C21      C      0.545490000000     0.231550000000     0.144690000000     0.479373   
C22      C      0.615110000000     0.226860000000     0.322990000000     0.480985   
C23      C      0.612860000000     0.321210000000     0.235120000000     0.475666   
C24      C      0.538320000000     0.140110000000     0.236120000000     0.479277   
C25      C      0.612810000000     0.230700000000     0.756340000000     0.4758     
C26      C      0.615180000000     0.318750000000     0.850820000000     0.480821   
C27      C      0.538390000000     0.232070000000     0.937570000000     0.47933    
C28      C      0.468650000000     0.227270000000     0.759290000000     0.48103    
C29      C      0.471020000000     0.321780000000     0.847310000000     0.475868   
C30      C      0.545430000000     0.140510000000     0.846030000000     0.47952    
C31      C      0.848020000000     0.321560000000     0.611990000000     0.475812   
C32      C      0.760080000000     0.227150000000     0.614330000000     0.480824   
C33      C      0.846890000000     0.140230000000     0.537610000000     0.479485   
C34      C      0.851530000000     0.318350000000     0.467830000000     0.480904   
C35      C      0.757140000000     0.230430000000     0.470200000000     0.475789   
C36      C      0.938350000000     0.231740000000     0.544630000000     0.47935    
C37      C      0.326630000000     0.230830000000     0.612050000000     0.475655   
C38      C      0.232180000000     0.318850000000     0.614280000000     0.481067   
C39      C      0.145460000000     0.231860000000     0.537520000000     0.479414   
C40      C      0.323780000000     0.226990000000     0.467880000000     0.481115   
C41      C      0.235790000000     0.321420000000     0.470150000000     0.475746   
C42      C      0.236980000000     0.140390000000     0.544720000000     0.479581   
C43      C      0.235740000000     0.466170000000     0.756450000000     0.475888   
C44      C      0.323720000000     0.463840000000     0.850870000000     0.480861   
C45      C      0.236880000000     0.540560000000     0.937790000000     0.479545   
C46      C      0.232140000000     0.610340000000     0.759650000000     0.480741   
C47      C      0.326560000000     0.607960000000     0.847590000000     0.476001   
C48      C      0.145400000000     0.533510000000     0.846270000000     0.47936    
C49      C      0.326460000000     0.842750000000     0.470620000000     0.47566    
C50      C      0.232070000000     0.754790000000     0.468410000000     0.480915   
C51      C      0.145320000000     0.841810000000     0.545180000000     0.479505   
C52      C      0.323640000000     0.846610000000     0.614780000000     0.480926   
C53      C      0.235700000000     0.752230000000     0.612540000000     0.475823   
C54      C      0.236800000000     0.933240000000     0.537950000000     0.479144   
C55      C      0.847920000000     0.751790000000     0.470700000000     0.475802   
C56      C      0.759940000000     0.846250000000     0.468330000000     0.480977   
C57      C      0.846710000000     0.933140000000     0.545060000000     0.479295   
C58      C      0.851410000000     0.755020000000     0.614870000000     0.480822   
C59      C      0.756980000000     0.842990000000     0.612460000000     0.475821   
C60      C      0.938210000000     0.841590000000     0.538060000000     0.479148   
C61      C      0.470830000000     0.843050000000     0.756820000000     0.475753   
C62      C      0.468540000000     0.755160000000     0.851160000000     0.480926   
C63      C      0.545310000000     0.841950000000     0.937990000000     0.479402   
C64      C      0.614970000000     0.846550000000     0.759710000000     0.480956   
C65      C      0.612680000000     0.752190000000     0.847580000000     0.475717   
C66      C      0.538210000000     0.933400000000     0.846560000000     0.479631   
C67      C      0.847880000000     0.607870000000     0.756740000000     0.475792   
C68      C      0.759890000000     0.610090000000     0.851150000000     0.481013   
C69      C      0.846780000000     0.533270000000     0.937760000000     0.479509   
C70      C      0.851580000000     0.463730000000     0.759300000000     0.481038   
C71      C      0.757160000000     0.465950000000     0.847270000000     0.47574    
C72      C      0.938270000000     0.540520000000     0.846310000000     0.4794     
C73      C      0.637660000000     0.666060000000     0.840750000000     0.00674809 
C74      C      0.646410000000     0.712510000000     0.858300000000    -0.121029   
C75      C      0.690380000000     0.722040000000     0.881630000000     0.00829075 
C76      C      0.726420000000     0.686970000000     0.883710000000     0.0100907  
C77      C      0.719140000000     0.642140000000     0.861940000000    -0.125059   
C78      C      0.673850000000     0.631350000000     0.842220000000     0.011503   
C79      C      0.883830000000     0.721670000000     0.691740000000     0.0100573  
C80      C      0.862180000000     0.714320000000     0.646880000000    -0.125029   
C81      C      0.842580000000     0.669000000000     0.636020000000     0.0115516  
C82      C      0.841120000000     0.632820000000     0.670660000000     0.00669375 
C83      C      0.858560000000     0.641630000000     0.717130000000    -0.120984   
C84      C      0.881760000000     0.685640000000     0.726750000000     0.00828281 
C85      C      0.670900000000     0.836080000000     0.637450000000     0.00679366 
C86      C      0.717280000000     0.853710000000     0.646200000000    -0.121069   
C87      C      0.726760000000     0.877080000000     0.690190000000     0.00835855 
C88      C      0.691730000000     0.879140000000     0.726250000000     0.00998144 
C89      C      0.646970000000     0.857290000000     0.718960000000    -0.124995   
C90      C      0.636210000000     0.837520000000     0.673660000000     0.0114663  
C91      C      0.018230000000     0.837080000000     0.497110000000     0.00843355 
C92      C      0.991130000000     0.838160000000     0.539590000000    -0.123398   
C93      C      0.015120000000     0.837810000000     0.584110000000     0.010091   
C94      C      0.065310000000     0.837330000000     0.586130000000     0.00868535 
C95      C      0.092410000000     0.838290000000     0.543650000000    -0.123717   
C96      C      0.068420000000     0.837680000000     0.499130000000     0.0103771  
C97      C      0.357070000000     0.879170000000     0.691660000000     0.0100031  
C98      C      0.364380000000     0.857410000000     0.646810000000    -0.124996   
C99      C      0.409680000000     0.837700000000     0.636000000000     0.0114645  
C100     C      0.445870000000     0.836240000000     0.670700000000     0.00681115 
C101     C      0.437100000000     0.853770000000     0.717150000000    -0.121054   
C102     C      0.393110000000     0.877090000000     0.726710000000     0.00830961 
C103     C      0.065420000000     0.492530000000     0.841680000000     0.00860291 
C104     C      0.092470000000     0.535020000000     0.842820000000    -0.123539   
C105     C      0.068430000000     0.579530000000     0.842470000000     0.0102502  
C106     C      0.018240000000     0.581520000000     0.841940000000     0.0085426  
C107     C      0.991190000000     0.539030000000     0.842840000000    -0.123513   
C108     C      0.015230000000     0.494520000000     0.842220000000     0.0101477  
C109     C      0.356720000000     0.685700000000     0.881650000000     0.00836126 
C110     C      0.366230000000     0.641700000000     0.858290000000    -0.121153   
C111     C      0.412640000000     0.632930000000     0.840680000000     0.00682325 
C112     C      0.447320000000     0.669130000000     0.842130000000     0.0114317  
C113     C      0.436530000000     0.714430000000     0.861900000000    -0.124978   
C114     C      0.391750000000     0.721740000000     0.883720000000     0.0100134  
C115     C      0.199710000000     0.687220000000     0.726330000000     0.0100441  
C116     C      0.221360000000     0.642350000000     0.718960000000    -0.125034   
C117     C      0.240970000000     0.631480000000     0.673630000000     0.0115161  
C118     C      0.242440000000     0.666140000000     0.637460000000     0.00672137 
C119     C      0.225000000000     0.712620000000     0.646290000000    -0.121007   
C120     C      0.201790000000     0.722230000000     0.690320000000     0.00829528 
C121     C      0.241340000000     0.060500000000     0.585810000000     0.00872843 
C122     C      0.240380000000     0.087460000000     0.543290000000    -0.123744   
C123     C      0.240870000000     0.063310000000     0.498810000000     0.0103652  
C124     C      0.241350000000     0.013120000000     0.496870000000     0.00840891 
C125     C      0.240270000000     0.986170000000     0.539400000000    -0.12334    
C126     C      0.240750000000     0.010310000000     0.583880000000     0.0100768  
C127     C      0.241180000000     0.404890000000     0.635600000000     0.0115397  
C128     C      0.221420000000     0.359640000000     0.646320000000    -0.125119   
C129     C      0.199590000000     0.352430000000     0.691090000000     0.0100496  
C130     C      0.201660000000     0.388510000000     0.726170000000     0.00837034 
C131     C      0.225030000000     0.432430000000     0.716720000000    -0.121092   
C132     C      0.242630000000     0.441120000000     0.670320000000     0.00675209 
C133     C      0.842280000000     0.013310000000     0.585890000000     0.00846768 
C134     C      0.843240000000     0.986060000000     0.543460000000    -0.12343    
C135     C      0.842750000000     0.009900000000     0.498890000000     0.0101403  
C136     C      0.842270000000     0.060080000000     0.496790000000     0.00865722 
C137     C      0.843350000000     0.087320000000     0.539220000000    -0.123638   
C138     C      0.842860000000     0.063480000000     0.583780000000     0.0103564  
C139     C      0.015260000000     0.235580000000     0.498560000000     0.010109   
C140     C      0.991260000000     0.235230000000     0.543080000000    -0.123467   
C141     C      0.018360000000     0.236430000000     0.585560000000     0.00845143 
C142     C      0.068550000000     0.235940000000     0.583540000000     0.0103737  
C143     C      0.092540000000     0.235320000000     0.539030000000    -0.123694   
C144     C      0.065440000000     0.236160000000     0.496540000000     0.00865962 
C145     C      0.841140000000     0.407690000000     0.637020000000     0.0068102  
C146     C      0.858740000000     0.361290000000     0.645720000000    -0.121096   
C147     C      0.882120000000     0.351830000000     0.689660000000     0.00833806 
C148     C      0.884200000000     0.386920000000     0.725730000000     0.0100256  
C149     C      0.862360000000     0.431690000000     0.718500000000    -0.125014   
C150     C      0.842600000000     0.442420000000     0.673240000000     0.0114894  
C151     C      0.586370000000     0.060430000000     0.841820000000     0.00860895 
C152     C      0.543900000000     0.087580000000     0.842660000000    -0.123647   
C153     C      0.499370000000     0.063640000000     0.842150000000     0.0103218  
C154     C      0.497320000000     0.013450000000     0.841780000000     0.00852474 
C155     C      0.539780000000     0.986310000000     0.842990000000    -0.123556   
C156     C      0.584320000000     0.010250000000     0.842520000000     0.0102142  
C157     C      0.393320000000     0.352040000000     0.881370000000     0.00831674 
C158     C      0.437270000000     0.361490000000     0.858010000000    -0.121056   
C159     C      0.445980000000     0.407860000000     0.840390000000     0.00675469 
C160     C      0.409750000000     0.442550000000     0.841830000000     0.011481   
C161     C      0.364490000000     0.431820000000     0.861590000000    -0.124967   
C162     C      0.357260000000     0.387080000000     0.883420000000     0.0100287  
C163     C      0.412730000000     0.237580000000     0.637050000000     0.00674717 
C164     C      0.366290000000     0.220130000000     0.645800000000    -0.121014   
C165     C      0.356750000000     0.196900000000     0.689770000000     0.00831314 
C166     C      0.391790000000     0.194820000000     0.725810000000     0.0100212  
C167     C      0.436620000000     0.216500000000     0.718530000000    -0.125011   
C168     C      0.447420000000     0.236120000000     0.673250000000     0.0115075  
C169     C      0.692060000000     0.352190000000     0.883250000000     0.0100439  
C170     C      0.647220000000     0.359490000000     0.861590000000    -0.124957   
C171     C      0.636390000000     0.404770000000     0.841970000000     0.0115031  
C172     C      0.671060000000     0.440960000000     0.840510000000     0.00672993 
C173     C      0.717520000000     0.432200000000     0.857960000000    -0.120982   
C174     C      0.727090000000     0.388220000000     0.881180000000     0.00829942 
C175     C      0.637830000000     0.237600000000     0.670260000000     0.00676923 
C176     C      0.646560000000     0.220000000000     0.716640000000    -0.121057   
C177     C      0.690530000000     0.196670000000     0.726120000000     0.00836198 
C178     C      0.726600000000     0.194620000000     0.691090000000     0.00997608 
C179     C      0.719330000000     0.216430000000     0.646340000000    -0.124953   
C180     C      0.674050000000     0.236170000000     0.635590000000     0.0114777  
C181     C      0.586430000000     0.236280000000     0.064690000000     0.00860507 
C182     C      0.543950000000     0.235120000000     0.091780000000    -0.123588   
C183     C      0.499430000000     0.235640000000     0.067790000000     0.0102957  
C184     C      0.497410000000     0.236330000000     0.017600000000     0.00850504 
C185     C      0.539890000000     0.235450000000     0.990500000000    -0.123461   
C186     C      0.584410000000     0.235910000000     0.014500000000     0.0101134  
C187     C      0.446000000000     0.237300000000     0.411970000000     0.00673795 
C188     C      0.437230000000     0.219830000000     0.365500000000    -0.120903   
C189     C      0.393240000000     0.196570000000     0.355920000000     0.00822146 
C190     C      0.357220000000     0.194480000000     0.390970000000     0.0101098  
C191     C      0.364520000000     0.216180000000     0.435840000000    -0.125111   
C192     C      0.409820000000     0.235830000000     0.446670000000     0.0115188  
C193     C      0.636350000000     0.235860000000     0.409030000000     0.0115583  
C194     C      0.647120000000     0.216100000000     0.363730000000    -0.125094   
C195     C      0.691920000000     0.194280000000     0.356430000000     0.0100748  
C196     C      0.726960000000     0.196340000000     0.392470000000     0.00826482 
C197     C      0.717450000000     0.219710000000     0.436470000000    -0.121037   
C198     C      0.671040000000     0.237310000000     0.445240000000     0.00673017 
C199     C      0.586340000000     0.012970000000     0.240840000000     0.00841286 
C200     C      0.543830000000     0.985920000000     0.240000000000    -0.123393   
C201     C      0.499330000000     0.009970000000     0.240500000000     0.0101471  
C202     C      0.497340000000     0.060150000000     0.240870000000     0.00860065 
C203     C      0.539840000000     0.087200000000     0.239670000000    -0.123594   
C204     C      0.584340000000     0.063160000000     0.240140000000     0.0103548  
C205     C      0.584220000000     0.837510000000     0.068180000000     0.0103168  
C206     C      0.539700000000     0.838060000000     0.092180000000    -0.123677   
C207     C      0.497220000000     0.837260000000     0.065080000000     0.00867937 
C208     C      0.499240000000     0.837960000000     0.014890000000     0.0101101  
C209     C      0.543760000000     0.838380000000     0.990900000000    -0.123432   
C210     C      0.586240000000     0.837130000000     0.018000000000     0.0084591  
C211     C      0.637690000000     0.835860000000     0.412400000000     0.00678185 
C212     C      0.646420000000     0.853400000000     0.366010000000    -0.121035   
C213     C      0.690390000000     0.876680000000     0.356510000000     0.00835347 
C214     C      0.726450000000     0.878740000000     0.391540000000     0.00998707 
C215     C      0.719180000000     0.856980000000     0.436310000000    -0.124964   
C216     C      0.673910000000     0.837290000000     0.447080000000     0.0114753  
C217     C      0.447280000000     0.837510000000     0.409440000000     0.0115974  
C218     C      0.436460000000     0.857120000000     0.364160000000    -0.125124   
C219     C      0.391590000000     0.878770000000     0.356870000000     0.0101206  
C220     C      0.356540000000     0.876680000000     0.392900000000     0.00820627 
C221     C      0.366120000000     0.853460000000     0.436880000000    -0.120905   
C222     C      0.412590000000     0.836040000000     0.445640000000     0.00668083 
C223     C      0.842270000000     0.581130000000     0.065030000000     0.00864207 
C224     C      0.843320000000     0.538610000000     0.091980000000    -0.123612   
C225     C      0.842880000000     0.494130000000     0.067840000000     0.0103003  
C226     C      0.842350000000     0.492190000000     0.017650000000     0.00846939 
C227     C      0.843330000000     0.534720000000     0.990690000000    -0.123474   
C228     C      0.842810000000     0.579200000000     0.014840000000     0.0101173  
C229     C      0.841180000000     0.440560000000     0.412030000000     0.00672675 
C230     C      0.858670000000     0.431750000000     0.365580000000    -0.120936   
C231     C      0.881920000000     0.387720000000     0.355980000000     0.00821024 
C232     C      0.883990000000     0.351700000000     0.390990000000     0.0100861  
C233     C      0.862290000000     0.359050000000     0.435820000000    -0.124994   
C234     C      0.842640000000     0.404380000000     0.446680000000     0.0114773  
C235     C      0.673980000000     0.442020000000     0.240430000000     0.0115023  
C236     C      0.719280000000     0.431180000000     0.220750000000    -0.125039   
C237     C      0.726610000000     0.386320000000     0.199040000000     0.0100566  
C238     C      0.690580000000     0.351280000000     0.201130000000     0.00828656 
C239     C      0.646590000000     0.360860000000     0.224410000000    -0.120979   
C240     C      0.637800000000     0.407330000000     0.241900000000     0.00675582 
C241     C      0.726900000000     0.685070000000     0.201420000000     0.00828498 
C242     C      0.717370000000     0.641120000000     0.224700000000    -0.121031   
C243     C      0.670950000000     0.632400000000     0.242210000000     0.00681182 
C244     C      0.636240000000     0.668610000000     0.240750000000     0.0114291  
C245     C      0.647030000000     0.713870000000     0.221070000000    -0.124939   
C246     C      0.691840000000     0.721120000000     0.199340000000     0.0100369  
C247     C      0.884090000000     0.686400000000     0.356950000000     0.0100743  
C248     C      0.862240000000     0.641660000000     0.364160000000    -0.125056   
C249     C      0.842460000000     0.630950000000     0.409420000000     0.011506   
C250     C      0.841010000000     0.665670000000     0.445650000000     0.00674065 
C251     C      0.858640000000     0.712050000000     0.436960000000    -0.121028   
C252     C      0.882030000000     0.721480000000     0.393030000000     0.00833098 
C253     C      0.065310000000     0.581000000000     0.241010000000     0.00855133 
C254     C      0.092460000000     0.538530000000     0.239870000000    -0.123495   
C255     C      0.068520000000     0.494000000000     0.240220000000     0.0102507  
C256     C      0.018330000000     0.491950000000     0.240740000000     0.0084982  
C257     C      0.991190000000     0.534420000000     0.239850000000    -0.123491   
C258     C      0.015130000000     0.578950000000     0.240470000000     0.0101796  
C259     C      0.240920000000     0.494400000000     0.014550000000     0.0101306  
C260     C      0.240380000000     0.538960000000     0.990710000000    -0.123477   
C261     C      0.241370000000     0.581390000000     0.017950000000     0.00852022 
C262     C      0.240830000000     0.579290000000     0.068130000000     0.0102806  
C263     C      0.240390000000     0.534730000000     0.091970000000    -0.123592   
C264     C      0.241460000000     0.492300000000     0.064730000000     0.00863294 
C265     C      0.356910000000     0.388020000000     0.200940000000     0.00834042 
C266     C      0.366370000000     0.431980000000     0.224360000000    -0.12105    
C267     C      0.412750000000     0.440720000000     0.242030000000     0.0067812  
C268     C      0.447450000000     0.404500000000     0.240590000000     0.0114396  
C269     C      0.436710000000     0.359220000000     0.220770000000    -0.124931   
C270     C      0.391960000000     0.351960000000     0.198880000000     0.00998663 
C271     C      0.199810000000     0.386460000000     0.356350000000     0.0100987  
C272     C      0.221480000000     0.431290000000     0.363700000000    -0.125058   
C273     C      0.241100000000     0.442140000000     0.409030000000     0.0115382  
C274     C      0.242550000000     0.407500000000     0.445210000000     0.00666922 
C275     C      0.225100000000     0.361040000000     0.436390000000    -0.12094    
C276     C      0.201880000000     0.351450000000     0.392370000000     0.00824917 
C277     C      0.409620000000     0.631090000000     0.240830000000     0.0114196  
C278     C      0.364330000000     0.641870000000     0.221110000000    -0.124934   
C279     C      0.357050000000     0.686630000000     0.199340000000     0.0100058  
C280     C      0.393100000000     0.721650000000     0.201400000000     0.00832301 
C281     C      0.437080000000     0.712150000000     0.224700000000    -0.121016   
C282     C      0.445820000000     0.665760000000     0.242270000000     0.00678277 
C283     C      0.201490000000     0.685130000000     0.356560000000     0.00836304 
C284     C      0.224910000000     0.641200000000     0.365990000000    -0.121165   
C285     C      0.242560000000     0.632510000000     0.412370000000     0.00682389 
C286     C      0.241120000000     0.668740000000     0.447090000000     0.0114699  
C287     C      0.221310000000     0.713990000000     0.436380000000    -0.124987   
C288     C      0.199430000000     0.721200000000     0.391640000000     0.0100387  
Fe1      Fe     0.228970000000     0.588830000000     0.227830000000     1.33775    
Fe2      Fe     0.228250000000     0.484370000000     0.228400000000     1.33791    
Fe3      Fe     0.292090000000     0.536590000000     0.291610000000     1.35126    
Fe4      Fe     0.855440000000     0.588680000000     0.228680000000     1.33786    
Fe5      Fe     0.854640000000     0.484210000000     0.227590000000     1.33766    
Fe6      Fe     0.791560000000     0.536440000000     0.291630000000     1.35092    
Fe7      Fe     0.593980000000     0.849290000000     0.227940000000     1.33785    
Fe8      Fe     0.489520000000     0.850200000000     0.228770000000     1.33771    
Fe9      Fe     0.541750000000     0.786330000000     0.291800000000     1.35108    
Fe10     Fe     0.489680000000     0.223800000000     0.227460000000     1.3379     
Fe11     Fe     0.594140000000     0.222840000000     0.228340000000     1.33773    
Fe12     Fe     0.541910000000     0.286850000000     0.291450000000     1.35111    
Fe13     Fe     0.594150000000     0.224120000000     0.854730000000     1.33771    
Fe14     Fe     0.489680000000     0.223380000000     0.853920000000     1.33743    
Fe15     Fe     0.541910000000     0.287170000000     0.790890000000     1.35119    
Fe16     Fe     0.854730000000     0.223150000000     0.593330000000     1.33806    
Fe17     Fe     0.855530000000     0.223750000000     0.488870000000     1.33769    
Fe18     Fe     0.791620000000     0.286960000000     0.541100000000     1.35094    
Fe19     Fe     0.228250000000     0.224160000000     0.593340000000     1.33786    
Fe20     Fe     0.229140000000     0.223070000000     0.488870000000     1.33753    
Fe21     Fe     0.292160000000     0.287080000000     0.541100000000     1.35102    
Fe22     Fe     0.229060000000     0.484830000000     0.854870000000     1.33791    
Fe23     Fe     0.228180000000     0.589290000000     0.854260000000     1.33759    
Fe24     Fe     0.292100000000     0.537060000000     0.791060000000     1.35112    
Fe25     Fe     0.228090000000     0.849480000000     0.489340000000     1.3376     
Fe26     Fe     0.228990000000     0.850580000000     0.593810000000     1.33763    
Fe27     Fe     0.292050000000     0.786530000000     0.541580000000     1.35094    
Fe28     Fe     0.854580000000     0.850200000000     0.489340000000     1.33793    
Fe29     Fe     0.855380000000     0.849620000000     0.593810000000     1.33772    
Fe30     Fe     0.791510000000     0.786450000000     0.541580000000     1.35107    
Fe31     Fe     0.489520000000     0.849800000000     0.855210000000     1.33783    
Fe32     Fe     0.593980000000     0.850590000000     0.854360000000     1.3377     
Fe33     Fe     0.541760000000     0.786650000000     0.791230000000     1.35118    
Fe34     Fe     0.854560000000     0.589140000000     0.855100000000     1.33763    
Fe35     Fe     0.855530000000     0.484670000000     0.853990000000     1.33768    
Fe36     Fe     0.791560000000     0.536910000000     0.791050000000     1.35096    
H1       H      0.604120000000     0.657440000000     0.822960000000     0.0377498  
H2       H      0.697900000000     0.757420000000     0.896080000000     0.0386149  
H3       H      0.761060000000     0.696200000000     0.898900000000     0.0335459  
H4       H      0.667360000000     0.596790000000     0.825410000000     0.0369635  
H5       H      0.898930000000     0.756340000000     0.701030000000     0.0335467  
H6       H      0.825850000000     0.662460000000     0.601440000000     0.0369985  
H7       H      0.823430000000     0.599250000000     0.661970000000     0.0377902  
H8       H      0.896120000000     0.693210000000     0.762140000000     0.0386281  
H9       H      0.662310000000     0.818260000000     0.603890000000     0.0377296  
H10      H      0.762090000000     0.891600000000     0.697710000000     0.0385996  
H11      H      0.700920000000     0.894380000000     0.760900000000     0.0336004  
H12      H      0.601710000000     0.820660000000     0.667160000000     0.03698    
H13      H      0.000700000000     0.837280000000     0.462350000000     0.0369347  
H14      H      0.995040000000     0.838190000000     0.617470000000     0.0390521  
H15      H      0.082840000000     0.837730000000     0.620890000000     0.0369052  
H16      H      0.088490000000     0.837950000000     0.465770000000     0.0389423  
H17      H      0.322420000000     0.894340000000     0.700900000000     0.0335586  
H18      H      0.416190000000     0.820900000000     0.601430000000     0.0369771  
H19      H      0.479430000000     0.818460000000     0.662050000000     0.037737   
H20      H      0.385570000000     0.891530000000     0.762090000000     0.0386057  
H21      H      0.082990000000     0.457780000000     0.841880000000     0.0369206  
H22      H      0.088470000000     0.612900000000     0.842900000000     0.0389798  
H23      H      0.000670000000     0.616270000000     0.842350000000     0.0369177  
H24      H      0.995190000000     0.461150000000     0.842460000000     0.03903    
H25      H      0.321380000000     0.693240000000     0.896150000000     0.0386031  
H26      H      0.421260000000     0.599370000000     0.822870000000     0.0377292  
H27      H      0.481830000000     0.662620000000     0.825280000000     0.0369922  
H28      H      0.382530000000     0.756400000000     0.898950000000     0.0335805  
H29      H      0.184610000000     0.696510000000     0.761010000000     0.0335406  
H30      H      0.257700000000     0.596900000000     0.667070000000     0.0369938  
H31      H      0.260140000000     0.657440000000     0.603880000000     0.0377866  
H32      H      0.187420000000     0.757630000000     0.697900000000     0.0386199  
H33      H      0.241030000000     0.078160000000     0.620540000000     0.0368815  
H34      H      0.240580000000     0.083270000000     0.465420000000     0.0389505  
H35      H      0.241060000000     0.995470000000     0.462140000000     0.0370031  
H36      H      0.240380000000     0.990350000000     0.617270000000     0.0390373  
H37      H      0.258040000000     0.411320000000     0.601090000000     0.0369468  
H38      H      0.184360000000     0.317830000000     0.700270000000     0.0335742  
H39      H      0.187160000000     0.381040000000     0.761510000000     0.0385824  
H40      H      0.260460000000     0.474620000000     0.661760000000     0.037712   
H41      H      0.842580000000     0.995900000000     0.620680000000     0.0369437  
H42      H      0.843030000000     0.989700000000     0.465570000000     0.0390205  
H43      H      0.842560000000     0.077480000000     0.462000000000     0.0369174  
H44      H      0.843240000000     0.083680000000     0.617110000000     0.0389502  
H45      H      0.995180000000     0.235110000000     0.465210000000     0.039048   
H46      H      0.000830000000     0.236250000000     0.620320000000     0.0369593  
H47      H      0.088630000000     0.235750000000     0.616900000000     0.0389429  
H48      H      0.082980000000     0.235740000000     0.461780000000     0.0368796  
H49      H      0.823310000000     0.416260000000     0.603500000000     0.0377127  
H50      H      0.896630000000     0.316500000000     0.697130000000     0.0386007  
H51      H      0.899430000000     0.377740000000     0.760340000000     0.0335796  
H52      H      0.825730000000     0.476940000000     0.666800000000     0.0369572  
H53      H      0.621130000000     0.077920000000     0.842150000000     0.0368761  
H54      H      0.466020000000     0.083750000000     0.842350000000     0.0389645  
H55      H      0.462550000000     0.995970000000     0.842050000000     0.0369852  
H56      H      0.617660000000     0.990130000000     0.842980000000     0.0390003  
H57      H      0.385850000000     0.316730000000     0.895870000000     0.0386222  
H58      H      0.479500000000     0.416420000000     0.822570000000     0.0377143  
H59      H      0.416210000000     0.477030000000     0.824980000000     0.0369822  
H60      H      0.322640000000     0.377900000000     0.898660000000     0.0336009  
H61      H      0.421370000000     0.255290000000     0.603510000000     0.0377443  
H62      H      0.321380000000     0.182520000000     0.697280000000     0.0386154  
H63      H      0.382550000000     0.179710000000     0.760450000000     0.0335639  
H64      H      0.481970000000     0.252860000000     0.666770000000     0.0369931  
H65      H      0.701320000000     0.317550000000     0.898370000000     0.0335583  
H66      H      0.601820000000     0.411270000000     0.825230000000     0.0369874  
H67      H      0.662400000000     0.474500000000     0.822800000000     0.0377658  
H68      H      0.762480000000     0.380690000000     0.895550000000     0.0386211  
H69      H      0.604280000000     0.255400000000     0.661680000000     0.0377202  
H70      H      0.698040000000     0.182180000000     0.761440000000     0.0386004  
H71      H      0.761230000000     0.179400000000     0.700280000000     0.0336104  
H72      H      0.667560000000     0.253010000000     0.601100000000     0.0369845  
H73      H      0.621180000000     0.235970000000     0.082210000000     0.0369575  
H74      H      0.466070000000     0.235210000000     0.087860000000     0.0389603  
H75      H      0.462650000000     0.236040000000     0.000070000000     0.0368864  
H76      H      0.617760000000     0.235680000000     0.994420000000     0.0390523  
H77      H      0.479560000000     0.255040000000     0.420640000000     0.0377643  
H78      H      0.385710000000     0.182170000000     0.320520000000     0.0386315  
H79      H      0.322570000000     0.179350000000     0.381710000000     0.0335209  
H80      H      0.416320000000     0.252590000000     0.481250000000     0.0369683  
H81      H      0.601820000000     0.252710000000     0.415540000000     0.0369559  
H82      H      0.701130000000     0.179050000000     0.321770000000     0.0335552  
H83      H      0.762310000000     0.181850000000     0.384940000000     0.0386259  
H84      H      0.662430000000     0.255130000000     0.478790000000     0.0377506  
H85      H      0.621080000000     0.995400000000     0.240510000000     0.0369477  
H86      H      0.465970000000     0.989930000000     0.240300000000     0.0390278  
H87      H      0.462590000000     0.077720000000     0.240600000000     0.036965   
H88      H      0.617710000000     0.083200000000     0.239680000000     0.0389475  
H89      H      0.617570000000     0.837680000000     0.088260000000     0.038968   
H90      H      0.462460000000     0.837620000000     0.082610000000     0.0368558  
H91      H      0.465880000000     0.838450000000     0.994810000000     0.0390305  
H92      H      0.621000000000     0.837370000000     0.000470000000     0.036989   
H93      H      0.604150000000     0.818100000000     0.421000000000     0.0377247  
H94      H      0.697890000000     0.891130000000     0.321170000000     0.0386087  
H95      H      0.761080000000     0.893910000000     0.382330000000     0.0335991  
H96      H      0.667430000000     0.820500000000     0.481590000000     0.0369917  
H97      H      0.481860000000     0.820780000000     0.415940000000     0.0369578  
H98      H      0.382330000000     0.893870000000     0.322220000000     0.0335218  
H99      H      0.321150000000     0.891040000000     0.385380000000     0.0386414  
H100     H      0.421250000000     0.818330000000     0.479180000000     0.0377786  
H101     H      0.842530000000     0.615860000000     0.082680000000     0.0369098  
H102     H      0.843230000000     0.460740000000     0.087800000000     0.0389624  
H103     H      0.842670000000     0.457460000000     0.000000000000     0.0369383  
H104     H      0.843110000000     0.612590000000     0.994870000000     0.0390461  
H105     H      0.823460000000     0.474140000000     0.420710000000     0.0377823  
H106     H      0.896320000000     0.380160000000     0.320600000000     0.0386476  
H107     H      0.899120000000     0.317030000000     0.381710000000     0.0335512  
H108     H      0.825880000000     0.410920000000     0.481240000000     0.0370068  
H109     H      0.667460000000     0.476600000000     0.257210000000     0.0369825  
H110     H      0.761270000000     0.377050000000     0.183890000000     0.0335225  
H111     H      0.698130000000     0.315880000000     0.186720000000     0.0386182  
H112     H      0.604240000000     0.416000000000     0.259660000000     0.0377678  
H113     H      0.762260000000     0.692550000000     0.187000000000     0.0386187  
H114     H      0.662330000000     0.598880000000     0.259960000000     0.0377183  
H115     H      0.601700000000     0.662150000000     0.257530000000     0.0369978  
H116     H      0.701070000000     0.755740000000     0.184190000000     0.0335673  
H117     H      0.899340000000     0.695560000000     0.322340000000     0.0335853  
H118     H      0.825580000000     0.596460000000     0.415850000000     0.0369576  
H119     H      0.823170000000     0.657130000000     0.479160000000     0.0377212  
H120     H      0.896550000000     0.756800000000     0.385560000000     0.0386046  
H121     H      0.082810000000     0.615770000000     0.240820000000     0.0369263  
H122     H      0.088630000000     0.460660000000     0.239790000000     0.0389793  
H123     H      0.000840000000     0.457190000000     0.240340000000     0.0369198  
H124     H      0.995010000000     0.612300000000     0.240240000000     0.0390172  
H125     H      0.240620000000     0.461080000000     0.994350000000     0.0390313  
H126     H      0.241030000000     0.616180000000     0.000540000000     0.0369129  
H127     H      0.240470000000     0.612610000000     0.088320000000     0.038966   
H128     H      0.241190000000     0.457510000000     0.082140000000     0.0368939  
H129     H      0.321590000000     0.380520000000     0.186390000000     0.0385964  
H130     H      0.421320000000     0.474250000000     0.259900000000     0.0377214  
H131     H      0.481940000000     0.410970000000     0.257490000000     0.0369879  
H132     H      0.382780000000     0.317330000000     0.183600000000     0.0335995  
H133     H      0.184700000000     0.377180000000     0.321670000000     0.0335361  
H134     H      0.257830000000     0.476700000000     0.415580000000     0.0369922  
H135     H      0.260250000000     0.416170000000     0.478790000000     0.037796   
H136     H      0.187500000000     0.316070000000     0.384800000000     0.0386339  
H137     H      0.416110000000     0.596590000000     0.257640000000     0.0370157  
H138     H      0.322410000000     0.695840000000     0.184150000000     0.0335953  
H139     H      0.385590000000     0.756990000000     0.186940000000     0.0386153  
H140     H      0.479370000000     0.657150000000     0.260040000000     0.0377242  
H141     H      0.186950000000     0.692600000000     0.321240000000     0.0385764  
H142     H      0.260420000000     0.599000000000     0.420920000000     0.0376943  
H143     H      0.258010000000     0.662300000000     0.481590000000     0.0369631  
H144     H      0.184160000000     0.755820000000     0.382470000000     0.0335726  
O1       O      0.321700000000     0.591780000000     0.273120000000    -0.496183   
O2       O      0.204670000000     0.467400000000     0.287360000000    -0.482503   
O3       O      0.287950000000     0.605770000000     0.204260000000    -0.482538   
O4       O      0.235570000000     0.622990000000     0.283730000000    -0.487171   
O5       O      0.334930000000     0.506920000000     0.251890000000    -0.485547   
O6       O      0.167220000000     0.505720000000     0.216570000000    -0.489671   
O7       O      0.249700000000     0.536590000000     0.249220000000    -0.863275   
O8       O      0.250230000000     0.496750000000     0.168090000000    -0.485573   
O9       O      0.217090000000     0.567480000000     0.166770000000    -0.489611   
O10      O      0.252390000000     0.566260000000     0.334490000000    -0.485291   
O11      O      0.168640000000     0.576460000000     0.249790000000    -0.485467   
O12      O      0.284110000000     0.450190000000     0.234950000000    -0.487047   
O13      O      0.273530000000     0.481400000000     0.321150000000    -0.49624    
O14      O      0.810160000000     0.591600000000     0.321410000000    -0.49623    
O15      O      0.795640000000     0.467320000000     0.203990000000    -0.48261    
O16      O      0.879050000000     0.605530000000     0.287720000000    -0.482603   
O17      O      0.799600000000     0.622880000000     0.235400000000    -0.487103   
O18      O      0.831240000000     0.506710000000     0.334370000000    -0.485276   
O19      O      0.866480000000     0.505620000000     0.166620000000    -0.489561   
O20      O      0.833950000000     0.536440000000     0.249230000000    -0.863035   
O21      O      0.914990000000     0.496520000000     0.249580000000    -0.485581   
O22      O      0.916450000000     0.567290000000     0.216720000000    -0.489789   
O23      O      0.748740000000     0.566160000000     0.252020000000    -0.485276   
O24      O      0.833450000000     0.576400000000     0.168310000000    -0.485661   
O25      O      0.848050000000     0.450000000000     0.283360000000    -0.486885   
O26      O      0.761910000000     0.481280000000     0.272910000000    -0.496168   
O27      O      0.596920000000     0.756610000000     0.273170000000    -0.496233   
O28      O      0.472600000000     0.873860000000     0.287800000000    -0.482476   
O29      O      0.610890000000     0.790250000000     0.204300000000    -0.482501   
O30      O      0.628170000000     0.842710000000     0.283770000000    -0.487088   
O31      O      0.512050000000     0.743490000000     0.252090000000    -0.485226   
O32      O      0.510890000000     0.911180000000     0.216940000000    -0.489767   
O33      O      0.541750000000     0.828670000000     0.249430000000    -0.863243   
O34      O      0.501840000000     0.828170000000     0.168390000000    -0.485529   
O35      O      0.572610000000     0.861130000000     0.166940000000    -0.48981    
O36      O      0.571450000000     0.826030000000     0.334640000000    -0.485401   
O37      O      0.581670000000     0.909680000000     0.249950000000    -0.485535   
O38      O      0.455330000000     0.794390000000     0.235340000000    -0.487025   
O39      O      0.486580000000     0.805000000000     0.321470000000    -0.496465   
O40      O      0.486760000000     0.316560000000     0.272850000000    -0.496098   
O41      O      0.611010000000     0.199280000000     0.287320000000    -0.482691   
O42      O      0.472820000000     0.282790000000     0.203910000000    -0.48265    
O43      O      0.455460000000     0.230510000000     0.283280000000    -0.486919   
O44      O      0.571640000000     0.329600000000     0.251840000000    -0.485289   
O45      O      0.572730000000     0.161840000000     0.216390000000    -0.489606   
O46      O      0.541910000000     0.244430000000     0.249020000000    -0.863327   
O47      O      0.581850000000     0.244800000000     0.168020000000    -0.485698   
O48      O      0.511080000000     0.211840000000     0.166440000000    -0.489641   
O49      O      0.512180000000     0.247240000000     0.334210000000    -0.485302   
O50      O      0.501960000000     0.163470000000     0.249400000000    -0.485657   
O51      O      0.628360000000     0.278650000000     0.235030000000    -0.486911   
O52      O      0.597070000000     0.268210000000     0.321120000000    -0.496138   
O53      O      0.597100000000     0.316810000000     0.809500000000    -0.496168   
O54      O      0.472750000000     0.199740000000     0.794900000000    -0.482575   
O55      O      0.611090000000     0.283140000000     0.878360000000    -0.482371   
O56      O      0.628320000000     0.230650000000     0.798890000000    -0.48707    
O57      O      0.512230000000     0.330050000000     0.830600000000    -0.485426   
O58      O      0.511040000000     0.162370000000     0.865760000000    -0.489829   
O59      O      0.541920000000     0.244830000000     0.833250000000    -0.863123   
O60      O      0.502030000000     0.245410000000     0.914300000000    -0.485341   
O61      O      0.572790000000     0.212330000000     0.915740000000    -0.489775   
O62      O      0.571590000000     0.247440000000     0.748040000000    -0.485357   
O63      O      0.581790000000     0.163750000000     0.832720000000    -0.485575   
O64      O      0.455500000000     0.279240000000     0.847350000000    -0.486968   
O65      O      0.486730000000     0.268580000000     0.761220000000    -0.496306   
O66      O      0.761970000000     0.268450000000     0.596280000000    -0.496112   
O67      O      0.879100000000     0.282710000000     0.471920000000    -0.482511   
O68      O      0.795740000000     0.199580000000     0.610240000000    -0.482492   
O69      O      0.848070000000     0.279040000000     0.627510000000    -0.487155   
O70      O      0.748820000000     0.247240000000     0.511410000000    -0.48533    
O71      O      0.916560000000     0.211910000000     0.510240000000    -0.489501   
O72      O      0.834030000000     0.244550000000     0.541100000000    -0.863183   
O73      O      0.833580000000     0.163440000000     0.501230000000    -0.485637   
O74      O      0.866650000000     0.162100000000     0.571970000000    -0.489891   
O75      O      0.831280000000     0.329820000000     0.570780000000    -0.485329   
O76      O      0.915050000000     0.245110000000     0.580980000000    -0.485787   
O77      O      0.799690000000     0.230310000000     0.454680000000    -0.486981   
O78      O      0.810210000000     0.316500000000     0.485920000000    -0.496215   
O79      O      0.273520000000     0.316870000000     0.596250000000    -0.496304   
O80      O      0.288160000000     0.199430000000     0.471980000000    -0.482529   
O81      O      0.204630000000     0.283210000000     0.610190000000    -0.482624   
O82      O      0.284070000000     0.230850000000     0.627550000000    -0.486919   
O83      O      0.252490000000     0.329830000000     0.511360000000    -0.485409   
O84      O      0.217280000000     0.162100000000     0.510280000000    -0.489626   
O85      O      0.249780000000     0.244700000000     0.541100000000    -0.863127   
O86      O      0.168770000000     0.245080000000     0.501160000000    -0.485473   
O87      O      0.167260000000     0.212230000000     0.571940000000    -0.489829   
O88      O      0.334970000000     0.247450000000     0.570830000000    -0.48522    
O89      O      0.250250000000     0.163780000000     0.581060000000    -0.485779   
O90      O      0.235740000000     0.278830000000     0.454650000000    -0.486865   
O91      O      0.321850000000     0.268340000000     0.485940000000    -0.49633    
O92      O      0.321790000000     0.481890000000     0.809570000000    -0.496253   
O93      O      0.204580000000     0.606240000000     0.795290000000    -0.482342   
O94      O      0.288070000000     0.467930000000     0.878440000000    -0.482528   
O95      O      0.235720000000     0.450650000000     0.798970000000    -0.487059   
O96      O      0.334900000000     0.566760000000     0.830790000000    -0.485439   
O97      O      0.167170000000     0.567910000000     0.866080000000    -0.489566   
O98      O      0.249710000000     0.537070000000     0.833460000000    -0.863118   
O99      O      0.250160000000     0.576930000000     0.914590000000    -0.485625   
O100     O      0.217150000000     0.506190000000     0.915910000000    -0.489958   
O101     O      0.252440000000     0.507380000000     0.748200000000    -0.48544    
O102     O      0.168720000000     0.497160000000     0.832900000000    -0.485757   
O103     O      0.284000000000     0.623480000000     0.847710000000    -0.487      
O104     O      0.273470000000     0.592240000000     0.761510000000    -0.496127   
O105     O      0.273410000000     0.756740000000     0.486430000000    -0.496177   
O106     O      0.288000000000     0.874190000000     0.610680000000    -0.482464   
O107     O      0.204490000000     0.790440000000     0.472510000000    -0.482509   
O108     O      0.283910000000     0.842740000000     0.455120000000    -0.486957   
O109     O      0.252400000000     0.743800000000     0.571330000000    -0.4853     
O110     O      0.217100000000     0.911550000000     0.572400000000    -0.489526   
O111     O      0.249640000000     0.828930000000     0.541580000000    -0.863065   
O112     O      0.168640000000     0.828600000000     0.581530000000    -0.485694   
O113     O      0.167090000000     0.861450000000     0.510750000000    -0.489692   
O114     O      0.334830000000     0.826120000000     0.511840000000    -0.485261   
O115     O      0.250070000000     0.909840000000     0.501600000000    -0.485658   
O116     O      0.235630000000     0.794820000000     0.628030000000    -0.486942   
O117     O      0.321730000000     0.805250000000     0.596730000000    -0.4963     
O118     O      0.761860000000     0.804960000000     0.486390000000    -0.49624    
O119     O      0.878970000000     0.790650000000     0.610770000000    -0.482425   
O120     O      0.795580000000     0.873800000000     0.472420000000    -0.482557   
O121     O      0.847960000000     0.794310000000     0.455170000000    -0.487141   
O122     O      0.748670000000     0.826190000000     0.571250000000    -0.48539    
O123     O      0.916390000000     0.861410000000     0.572450000000    -0.489637   
O124     O      0.833890000000     0.828820000000     0.541580000000    -0.863202   
O125     O      0.833390000000     0.909950000000     0.581430000000    -0.485524   
O126     O      0.866470000000     0.911240000000     0.510690000000    -0.48978    
O127     O      0.831200000000     0.743550000000     0.511910000000    -0.485307   
O128     O      0.914920000000     0.828210000000     0.501700000000    -0.485514   
O129     O      0.799530000000     0.843100000000     0.627980000000    -0.487014   
O130     O      0.810100000000     0.756890000000     0.596770000000    -0.496182   
O131     O      0.486590000000     0.757030000000     0.809830000000    -0.496163   
O132     O      0.610870000000     0.874140000000     0.795380000000    -0.482552   
O133     O      0.472630000000     0.790830000000     0.878750000000    -0.482594   
O134     O      0.455320000000     0.843140000000     0.799380000000    -0.486963   
O135     O      0.571470000000     0.743870000000     0.830850000000    -0.485463   
O136     O      0.572590000000     0.911620000000     0.866310000000    -0.4898     
O137     O      0.541750000000     0.829080000000     0.833660000000    -0.8631     
O138     O      0.581670000000     0.828640000000     0.914670000000    -0.485738   
O139     O      0.510920000000     0.861720000000     0.916230000000    -0.489691   
O140     O      0.512040000000     0.826300000000     0.748470000000    -0.485346   
O141     O      0.501850000000     0.910110000000     0.833270000000    -0.485776   
O142     O      0.628190000000     0.794740000000     0.847660000000    -0.486866   
O143     O      0.596920000000     0.805230000000     0.761580000000    -0.496234   
O144     O      0.761830000000     0.592060000000     0.809780000000    -0.496227   
O145     O      0.879140000000     0.467830000000     0.794940000000    -0.482627   
O146     O      0.795530000000     0.606000000000     0.878710000000    -0.482549   
O147     O      0.847910000000     0.623360000000     0.799330000000    -0.486828   
O148     O      0.748780000000     0.507160000000     0.830650000000    -0.485326   
O149     O      0.916510000000     0.506080000000     0.865930000000    -0.489745   
O150     O      0.833950000000     0.536910000000     0.833450000000    -0.862971   
O151     O      0.833530000000     0.496940000000     0.914360000000    -0.485824   
O152     O      0.866440000000     0.567730000000     0.916060000000    -0.489712   
O153     O      0.831200000000     0.566660000000     0.748320000000    -0.485385   
O154     O      0.914930000000     0.576870000000     0.833100000000    -0.485607   
O155     O      0.799730000000     0.450450000000     0.847270000000    -0.48686    
O156     O      0.810230000000     0.481760000000     0.761260000000    -0.496241   


