data_structure

_audit_creation_method RASPA-1.0
_audit_creation_date 2023-6-4
_audit_author_name 'Poobodin Mano'

_cell_length_a    29.3298
_cell_length_b    29.481
_cell_length_c    31.6349
_cell_angle_alpha 90
_cell_angle_beta  90
_cell_angle_gamma 120.584
_cell_volume      23548.5

_symmetry_cell_setting          triclinic
_symmetry_space_group_name_Hall 'P 1'
_symmetry_space_group_name_H-M  'P 1'
_symmetry_Int_Tables_number     1

_symmetry_equiv_pos_as_xyz 'x,y,z'

loop_
_atom_site_label
_atom_site_type_symbol
_atom_site_fract_x
_atom_site_fract_y
_atom_site_fract_z
_atom_site_charge
C1       C      0.373360000000     0.403270000000     0.283980000000     0.477484   
C2       C      0.366190000000     0.396560000000     0.397490000000     0.477139   
C3       C      0.232860000000     0.403280000000     0.397510000000     0.478549   
C4       C      0.366180000000     0.535990000000     0.283320000000     0.477815   
C5       C      0.374130000000     0.537060000000     0.396780000000     0.478616   
C6       C      0.232240000000     0.395190000000     0.284100000000     0.478888   
C7       C      0.440480000000     0.320570000000     0.033980000000     0.47705    
C8       C      0.447640000000     0.327280000000     0.147500000000     0.476988   
C9       C      0.580980000000     0.320570000000     0.147510000000     0.478763   
C10      C      0.447660000000     0.187860000000     0.033320000000     0.477309   
C11      C      0.439710000000     0.186780000000     0.146780000000     0.478444   
C12      C      0.581600000000     0.328650000000     0.034100000000     0.478735   
C13      C      0.638990000000     0.398130000000     0.481890000000     0.00908548 
C14      C      0.620230000000     0.347790000000     0.999150000000    -0.123654   
C15      C      0.138630000000     0.315760000000     0.982670000000     0.00985409 
C16      C      0.174780000000     0.333560000000     0.949230000000     0.00981642 
C17      C      0.194080000000     0.384170000000     0.432360000000    -0.123944   
C18      C      0.176120000000     0.416430000000     0.449160000000     0.00895461 
C19      C      0.174850000000     0.325710000000     0.231890000000     0.00890791 
C20      C      0.193610000000     0.376050000000     0.249140000000    -0.124042   
C21      C      0.175210000000     0.408090000000     0.232670000000     0.00999481 
C22      C      0.639060000000     0.390280000000     0.199220000000     0.00990445 
C23      C      0.619760000000     0.339670000000     0.182360000000    -0.123922   
C24      C      0.637720000000     0.307410000000     0.199160000000     0.00913018 
C25      C      0.435960000000     0.594330000000     0.231500000000     0.00947619 
C26      C      0.385110000000     0.574730000000     0.248540000000    -0.123329   
C27      C      0.352340000000     0.592320000000     0.231930000000     0.00883133 
C28      C      0.370340000000     0.129300000000     0.199220000000     0.00908946 
C29      C      0.420900000000     0.148330000000     0.181760000000    -0.123661   
C30      C      0.453470000000     0.130350000000     0.198070000000     0.0102999  
C31      C      0.377880000000     0.129510000000     0.481500000000     0.00964169 
C32      C      0.428730000000     0.149110000000     0.998540000000    -0.122803   
C33      C      0.461500000000     0.631520000000     0.981930000000     0.00867382 
C34      C      0.443500000000     0.594540000000     0.949220000000     0.00903668 
C35      C      0.392940000000     0.575510000000     0.431760000000    -0.123733   
C36      C      0.360370000000     0.093500000000     0.448060000000     0.0100094  
C37      C      0.454000000000     0.390860000000     0.482570000000     0.00968723 
C38      C      0.421500000000     0.340000000000     0.999070000000    -0.122555   
C39      C      0.370780000000     0.307850000000     0.981840000000     0.0085224  
C40      C      0.352600000000     0.326490000000     0.949160000000     0.00873461 
C41      C      0.385310000000     0.377130000000     0.432310000000    -0.122768   
C42      C      0.436300000000     0.409030000000     0.449150000000     0.00937249 
C43      C      0.359840000000     0.332980000000     0.232570000000     0.00968004 
C44      C      0.392340000000     0.383840000000     0.249070000000    -0.123031   
C45      C      0.443050000000     0.415990000000     0.231840000000     0.00868589 
C46      C      0.461240000000     0.397350000000     0.199150000000     0.00863188 
C47      C      0.428530000000     0.346710000000     0.182310000000    -0.122871   
C48      C      0.377540000000     0.314810000000     0.199150000000     0.00938409 
C49      C      0.373360000000     0.403270000000     0.783980000000     0.477485   
C50      C      0.366190000000     0.396560000000     0.897500000000     0.477057   
C51      C      0.232860000000     0.403280000000     0.897510000000     0.478511   
C52      C      0.366180000000     0.535990000000     0.783320000000     0.477818   
C53      C      0.374130000000     0.537060000000     0.896780000000     0.478681   
C54      C      0.232240000000     0.395190000000     0.784100000000     0.478832   
C55      C      0.440480000000     0.320570000000     0.533980000000     0.477483   
C56      C      0.447640000000     0.327280000000     0.647500000000     0.476997   
C57      C      0.580980000000     0.320570000000     0.647510000000     0.478774   
C58      C      0.447660000000     0.187860000000     0.533320000000     0.477675   
C59      C      0.439710000000     0.186780000000     0.646780000000     0.478385   
C60      C      0.581600000000     0.328650000000     0.534100000000     0.479098   
C61      C      0.638990000000     0.398130000000     0.981890000000     0.00898615 
C62      C      0.620230000000     0.347790000000     0.499140000000    -0.124015   
C63      C      0.138630000000     0.315760000000     0.482670000000     0.00994854 
C64      C      0.174780000000     0.333560000000     0.449230000000     0.00974797 
C65      C      0.194080000000     0.384170000000     0.932360000000    -0.123948   
C66      C      0.176120000000     0.416430000000     0.949160000000     0.00902126 
C67      C      0.174850000000     0.325710000000     0.731890000000     0.00890371 
C68      C      0.193610000000     0.376050000000     0.749140000000    -0.124004   
C69      C      0.175210000000     0.408090000000     0.732670000000     0.0099887  
C70      C      0.639060000000     0.390280000000     0.699220000000     0.00992022 
C71      C      0.619760000000     0.339670000000     0.682360000000    -0.123914   
C72      C      0.637720000000     0.307410000000     0.699160000000     0.00914523 
C73      C      0.435960000000     0.594330000000     0.731500000000     0.00950577 
C74      C      0.385110000000     0.574730000000     0.748540000000    -0.123338   
C75      C      0.352340000000     0.592320000000     0.731930000000     0.00886038 
C76      C      0.370340000000     0.129300000000     0.699220000000     0.00905993 
C77      C      0.420900000000     0.148330000000     0.681770000000    -0.123557   
C78      C      0.453470000000     0.130350000000     0.698070000000     0.0102673  
C79      C      0.377880000000     0.129510000000     0.981500000000     0.00953486 
C80      C      0.428730000000     0.149110000000     0.498530000000    -0.12317    
C81      C      0.461500000000     0.631520000000     0.481930000000     0.00877735 
C82      C      0.443500000000     0.594540000000     0.449220000000     0.00895082 
C83      C      0.392940000000     0.575510000000     0.931760000000    -0.123791   
C84      C      0.360370000000     0.093500000000     0.948070000000     0.0100998  
C85      C      0.454000000000     0.390860000000     0.982570000000     0.00954211 
C86      C      0.421500000000     0.340000000000     0.499070000000    -0.123008   
C87      C      0.370780000000     0.307850000000     0.481840000000     0.00866363 
C88      C      0.352600000000     0.326490000000     0.449160000000     0.00861168 
C89      C      0.385310000000     0.377130000000     0.932310000000    -0.122868   
C90      C      0.436300000000     0.409030000000     0.949150000000     0.00949069 
C91      C      0.359840000000     0.332980000000     0.732570000000     0.00969508 
C92      C      0.392340000000     0.383840000000     0.749070000000    -0.123029   
C93      C      0.443050000000     0.415990000000     0.731840000000     0.00869687 
C94      C      0.461240000000     0.397350000000     0.699150000000     0.00863717 
C95      C      0.428530000000     0.346710000000     0.682310000000    -0.122854   
C96      C      0.377540000000     0.314810000000     0.699150000000     0.00938826 
C97      C      0.373360000000     0.903270000000     0.283980000000     0.477419   
C98      C      0.366200000000     0.896570000000     0.397490000000     0.477034   
C99      C      0.232860000000     0.903280000000     0.397510000000     0.478471   
C100     C      0.366180000000     0.035990000000     0.283320000000     0.477075   
C101     C      0.374130000000     0.037060000000     0.396780000000     0.477873   
C102     C      0.232240000000     0.895190000000     0.284100000000     0.478627   
C103     C      0.440480000000     0.820570000000     0.033980000000     0.477045   
C104     C      0.447640000000     0.827270000000     0.147500000000     0.476991   
C105     C      0.580980000000     0.820560000000     0.147510000000     0.478573   
C106     C      0.447660000000     0.687860000000     0.033320000000     0.477243   
C107     C      0.439710000000     0.686780000000     0.146780000000     0.478585   
C108     C      0.581600000000     0.828650000000     0.034100000000     0.478716   
C109     C      0.638990000000     0.898130000000     0.481890000000     0.00900617 
C110     C      0.620230000000     0.847790000000     0.999150000000    -0.123716   
C111     C      0.138630000000     0.815760000000     0.982670000000     0.00981644 
C112     C      0.174780000000     0.833560000000     0.949230000000     0.00978115 
C113     C      0.194080000000     0.884170000000     0.432360000000    -0.124042   
C114     C      0.176120000000     0.916430000000     0.449160000000     0.00884608 
C115     C      0.174850000000     0.825710000000     0.231890000000     0.0088696  
C116     C      0.193610000000     0.876050000000     0.249140000000    -0.124105   
C117     C      0.175210000000     0.908090000000     0.232670000000     0.00988067 
C118     C      0.639060000000     0.890280000000     0.199220000000     0.00980982 
C119     C      0.619760000000     0.839670000000     0.182360000000    -0.123911   
C120     C      0.637720000000     0.807410000000     0.199160000000     0.00905773 
C121     C      0.435960000000     0.094330000000     0.231500000000     0.00938307 
C122     C      0.385110000000     0.074730000000     0.248540000000    -0.122735   
C123     C      0.352340000000     0.092320000000     0.231920000000     0.00872977 
C124     C      0.370340000000     0.629300000000     0.199220000000     0.00890965 
C125     C      0.420900000000     0.648330000000     0.181760000000    -0.123735   
C126     C      0.453470000000     0.630350000000     0.198070000000     0.0101203  
C127     C      0.377880000000     0.629510000000     0.481500000000     0.0094005  
C128     C      0.428730000000     0.649110000000     0.998540000000    -0.122752   
C129     C      0.461490000000     0.131520000000     0.981930000000     0.00896394 
C130     C      0.443500000000     0.094540000000     0.949220000000     0.00887208 
C131     C      0.392940000000     0.075510000000     0.431760000000    -0.123108   
C132     C      0.360370000000     0.593500000000     0.448060000000     0.0101354  
C133     C      0.454000000000     0.890860000000     0.482570000000     0.00959848 
C134     C      0.421500000000     0.840000000000     0.999070000000    -0.122608   
C135     C      0.370780000000     0.807850000000     0.981840000000     0.00847465 
C136     C      0.352600000000     0.826490000000     0.949160000000     0.00871895 
C137     C      0.385310000000     0.877130000000     0.432310000000    -0.122903   
C138     C      0.436300000000     0.909030000000     0.449150000000     0.00928627 
C139     C      0.359840000000     0.832980000000     0.232570000000     0.00966938 
C140     C      0.392340000000     0.883840000000     0.249070000000    -0.123136   
C141     C      0.443060000000     0.915990000000     0.231840000000     0.00858139 
C142     C      0.461240000000     0.897350000000     0.199150000000     0.00853793 
C143     C      0.428530000000     0.846720000000     0.182310000000    -0.122832   
C144     C      0.377540000000     0.814810000000     0.199150000000     0.00928523 
C145     C      0.373360000000     0.903270000000     0.783980000000     0.47742    
C146     C      0.366200000000     0.896570000000     0.897500000000     0.476953   
C147     C      0.232860000000     0.903280000000     0.897510000000     0.478434   
C148     C      0.366180000000     0.035990000000     0.783320000000     0.477079   
C149     C      0.374130000000     0.037060000000     0.896780000000     0.477938   
C150     C      0.232240000000     0.895190000000     0.784100000000     0.478571   
C151     C      0.440480000000     0.820570000000     0.533980000000     0.477477   
C152     C      0.447640000000     0.827270000000     0.647500000000     0.477      
C153     C      0.580980000000     0.820560000000     0.647510000000     0.478585   
C154     C      0.447660000000     0.687860000000     0.533320000000     0.477609   
C155     C      0.439710000000     0.686780000000     0.646780000000     0.478527   
C156     C      0.581600000000     0.828650000000     0.534100000000     0.479078   
C157     C      0.638990000000     0.898130000000     0.981890000000     0.00890711 
C158     C      0.620230000000     0.847790000000     0.499140000000    -0.124076   
C159     C      0.138630000000     0.815760000000     0.482670000000     0.00991063 
C160     C      0.174780000000     0.833560000000     0.449230000000     0.00971275 
C161     C      0.194080000000     0.884170000000     0.932360000000    -0.124046   
C162     C      0.176120000000     0.916430000000     0.949160000000     0.00891279 
C163     C      0.174850000000     0.825710000000     0.731890000000     0.00886536 
C164     C      0.193610000000     0.876050000000     0.749140000000    -0.124067   
C165     C      0.175210000000     0.908090000000     0.732670000000     0.00987449 
C166     C      0.639060000000     0.890280000000     0.699220000000     0.0098255  
C167     C      0.619760000000     0.839670000000     0.682360000000    -0.123902   
C168     C      0.637720000000     0.807410000000     0.699160000000     0.00907274 
C169     C      0.435960000000     0.094330000000     0.731500000000     0.00941319 
C170     C      0.385110000000     0.074730000000     0.748540000000    -0.122745   
C171     C      0.352340000000     0.092320000000     0.731930000000     0.00875936 
C172     C      0.370340000000     0.629300000000     0.699220000000     0.00887823 
C173     C      0.420900000000     0.648330000000     0.681770000000    -0.123631   
C174     C      0.453470000000     0.630350000000     0.698070000000     0.0100876  
C175     C      0.377880000000     0.629510000000     0.981500000000     0.00929408 
C176     C      0.428730000000     0.649110000000     0.498530000000    -0.123118   
C177     C      0.461490000000     0.131520000000     0.481930000000     0.00906783 
C178     C      0.443500000000     0.094540000000     0.449220000000     0.00878623 
C179     C      0.392940000000     0.075510000000     0.931760000000    -0.123166   
C180     C      0.360370000000     0.593500000000     0.948070000000     0.0102256  
C181     C      0.454000000000     0.890860000000     0.982570000000     0.00945363 
C182     C      0.421500000000     0.840000000000     0.499070000000    -0.123061   
C183     C      0.370780000000     0.807850000000     0.481840000000     0.00861562 
C184     C      0.352600000000     0.826490000000     0.449160000000     0.00859613 
C185     C      0.385310000000     0.877130000000     0.932310000000    -0.123003   
C186     C      0.436300000000     0.909030000000     0.949150000000     0.00940443 
C187     C      0.359840000000     0.832980000000     0.732570000000     0.00968436 
C188     C      0.392340000000     0.883840000000     0.749070000000    -0.123134   
C189     C      0.443060000000     0.915990000000     0.731840000000     0.00859229 
C190     C      0.461240000000     0.897350000000     0.699150000000     0.00854316 
C191     C      0.428530000000     0.846720000000     0.682310000000    -0.122816   
C192     C      0.377540000000     0.814810000000     0.699150000000     0.00928938 
C193     C      0.873360000000     0.403270000000     0.283980000000     0.477214   
C194     C      0.866200000000     0.396560000000     0.397490000000     0.477098   
C195     C      0.732860000000     0.403280000000     0.397510000000     0.478568   
C196     C      0.866180000000     0.535990000000     0.283320000000     0.477843   
C197     C      0.874120000000     0.537060000000     0.396780000000     0.47834    
C198     C      0.732240000000     0.395190000000     0.284100000000     0.478908   
C199     C      0.940480000000     0.320570000000     0.033980000000     0.476516   
C200     C      0.947640000000     0.327280000000     0.147500000000     0.477003   
C201     C      0.080980000000     0.320570000000     0.147510000000     0.477947   
C202     C      0.947660000000     0.187860000000     0.033320000000     0.477305   
C203     C      0.939710000000     0.186780000000     0.146780000000     0.478109   
C204     C      0.081600000000     0.328650000000     0.034100000000     0.477918   
C205     C      0.138990000000     0.398130000000     0.481890000000     0.00885765 
C206     C      0.120230000000     0.347790000000     0.999150000000    -0.123699   
C207     C      0.638630000000     0.315760000000     0.982670000000     0.0101051  
C208     C      0.674780000000     0.333560000000     0.949230000000     0.00990364 
C209     C      0.694080000000     0.384170000000     0.432360000000    -0.123798   
C210     C      0.676120000000     0.416430000000     0.449160000000     0.00905597 
C211     C      0.674850000000     0.325710000000     0.231890000000     0.00900703 
C212     C      0.693610000000     0.376050000000     0.249140000000    -0.12389    
C213     C      0.675210000000     0.408090000000     0.232670000000     0.0100737  
C214     C      0.139060000000     0.390280000000     0.199220000000     0.00963793 
C215     C      0.119760000000     0.339670000000     0.182360000000    -0.123961   
C216     C      0.137720000000     0.307410000000     0.199160000000     0.00889673 
C217     C      0.935960000000     0.594330000000     0.231500000000     0.00974878 
C218     C      0.885110000000     0.574730000000     0.248540000000    -0.123291   
C219     C      0.852340000000     0.592320000000     0.231930000000     0.00899364 
C220     C      0.870340000000     0.129300000000     0.199220000000     0.00902137 
C221     C      0.920900000000     0.148330000000     0.181760000000    -0.123205   
C222     C      0.953470000000     0.130350000000     0.198070000000     0.0103377  
C223     C      0.877870000000     0.129510000000     0.481500000000     0.0103474  
C224     C      0.928730000000     0.149110000000     0.998540000000    -0.12387    
C225     C      0.961500000000     0.631520000000     0.981930000000     0.0129915  
C226     C      0.943500000000     0.594540000000     0.949220000000     0.00745178 
C227     C      0.892940000000     0.575510000000     0.431760000000    -0.122794   
C228     C      0.860370000000     0.093500000000     0.448060000000     0.00947964 
C229     C      0.954000000000     0.390860000000     0.482570000000     0.00967435 
C230     C      0.921500000000     0.340000000000     0.999070000000    -0.122005   
C231     C      0.870780000000     0.307850000000     0.981840000000     0.00838889 
C232     C      0.852600000000     0.326500000000     0.949160000000     0.00894482 
C233     C      0.885310000000     0.377130000000     0.432310000000    -0.122785   
C234     C      0.936300000000     0.409030000000     0.449150000000     0.0096604  
C235     C      0.859840000000     0.332980000000     0.232570000000     0.00910481 
C236     C      0.892340000000     0.383840000000     0.249070000000    -0.122096   
C237     C      0.943050000000     0.415990000000     0.231840000000     0.00709243 
C238     C      0.961240000000     0.397350000000     0.199150000000     0.0129601  
C239     C      0.928530000000     0.346710000000     0.182310000000    -0.123988   
C240     C      0.877540000000     0.314810000000     0.199150000000     0.0101653  
C241     C      0.873360000000     0.403270000000     0.783980000000     0.477215   
C242     C      0.866200000000     0.396560000000     0.897500000000     0.477017   
C243     C      0.732860000000     0.403280000000     0.897510000000     0.478531   
C244     C      0.866180000000     0.535990000000     0.783320000000     0.477847   
C245     C      0.874120000000     0.537060000000     0.896780000000     0.478405   
C246     C      0.732240000000     0.395190000000     0.784100000000     0.47885    
C247     C      0.940480000000     0.320570000000     0.533980000000     0.476946   
C248     C      0.947640000000     0.327280000000     0.647500000000     0.477012   
C249     C      0.080980000000     0.320570000000     0.647510000000     0.477958   
C250     C      0.947660000000     0.187860000000     0.533320000000     0.47767    
C251     C      0.939710000000     0.186780000000     0.646780000000     0.47805    
C252     C      0.081600000000     0.328650000000     0.534100000000     0.478284   
C253     C      0.138990000000     0.398130000000     0.981890000000     0.00875747 
C254     C      0.120230000000     0.347790000000     0.499140000000    -0.124064   
C255     C      0.638630000000     0.315760000000     0.482670000000     0.0101986  
C256     C      0.674780000000     0.333560000000     0.449230000000     0.00983623 
C257     C      0.694080000000     0.384170000000     0.932360000000    -0.123802   
C258     C      0.676120000000     0.416430000000     0.949160000000     0.0091216  
C259     C      0.674850000000     0.325710000000     0.731890000000     0.00900072 
C260     C      0.693610000000     0.376050000000     0.749140000000    -0.123849   
C261     C      0.675210000000     0.408090000000     0.732670000000     0.0100614  
C262     C      0.139060000000     0.390280000000     0.699220000000     0.00965156 
C263     C      0.119760000000     0.339670000000     0.682360000000    -0.123952   
C264     C      0.137720000000     0.307410000000     0.699160000000     0.00891055 
C265     C      0.935960000000     0.594330000000     0.731500000000     0.00977827 
C266     C      0.885110000000     0.574730000000     0.748540000000    -0.1233     
C267     C      0.852340000000     0.592320000000     0.731930000000     0.00902262 
C268     C      0.870340000000     0.129300000000     0.699220000000     0.00899169 
C269     C      0.920900000000     0.148330000000     0.681770000000    -0.123102   
C270     C      0.953470000000     0.130350000000     0.698070000000     0.010305   
C271     C      0.877870000000     0.129510000000     0.981500000000     0.0102395  
C272     C      0.928730000000     0.149110000000     0.498530000000    -0.124237   
C273     C      0.961500000000     0.631520000000     0.481930000000     0.0131034  
C274     C      0.943500000000     0.594540000000     0.449220000000     0.00736338 
C275     C      0.892940000000     0.575510000000     0.931760000000    -0.122854   
C276     C      0.860370000000     0.093500000000     0.948070000000     0.00957064 
C277     C      0.954000000000     0.390860000000     0.982570000000     0.00953006 
C278     C      0.921500000000     0.340000000000     0.499070000000    -0.122455   
C279     C      0.870780000000     0.307850000000     0.481840000000     0.00852904 
C280     C      0.852600000000     0.326500000000     0.449160000000     0.0088229  
C281     C      0.885310000000     0.377130000000     0.932310000000    -0.122885   
C282     C      0.936300000000     0.409030000000     0.949150000000     0.00977743 
C283     C      0.859840000000     0.332980000000     0.732570000000     0.00912015 
C284     C      0.892340000000     0.383840000000     0.749070000000    -0.122095   
C285     C      0.943050000000     0.415990000000     0.731840000000     0.00710398 
C286     C      0.961240000000     0.397350000000     0.699150000000     0.0129636  
C287     C      0.928530000000     0.346710000000     0.682310000000    -0.123971   
C288     C      0.877540000000     0.314810000000     0.699150000000     0.010169   
C289     C      0.873360000000     0.903270000000     0.283980000000     0.477151   
C290     C      0.866200000000     0.896570000000     0.397490000000     0.477017   
C291     C      0.732860000000     0.903280000000     0.397510000000     0.478493   
C292     C      0.866180000000     0.035990000000     0.283320000000     0.47714    
C293     C      0.874120000000     0.037060000000     0.396780000000     0.477804   
C294     C      0.732240000000     0.895190000000     0.284100000000     0.47865    
C295     C      0.940480000000     0.820570000000     0.033980000000     0.476519   
C296     C      0.947640000000     0.827270000000     0.147500000000     0.476997   
C297     C      0.080980000000     0.820560000000     0.147510000000     0.477762   
C298     C      0.947660000000     0.687860000000     0.033320000000     0.477256   
C299     C      0.939720000000     0.686780000000     0.146780000000     0.478042   
C300     C      0.081600000000     0.828650000000     0.034100000000     0.477901   
C301     C      0.138990000000     0.898130000000     0.481890000000     0.00877914 
C302     C      0.120230000000     0.847790000000     0.999150000000    -0.123761   
C303     C      0.638630000000     0.815760000000     0.982670000000     0.0100671  
C304     C      0.674780000000     0.833560000000     0.949230000000     0.00986862 
C305     C      0.694080000000     0.884170000000     0.432360000000    -0.123897   
C306     C      0.676120000000     0.916430000000     0.449160000000     0.00894675 
C307     C      0.674850000000     0.825710000000     0.231890000000     0.008973   
C308     C      0.693610000000     0.876050000000     0.249140000000    -0.123959   
C309     C      0.675210000000     0.908090000000     0.232670000000     0.00996829 
C310     C      0.139060000000     0.890280000000     0.199220000000     0.00956333 
C311     C      0.119760000000     0.839670000000     0.182360000000    -0.12396    
C312     C      0.137720000000     0.807410000000     0.199160000000     0.00882957 
C313     C      0.935960000000     0.094330000000     0.231500000000     0.00963493 
C314     C      0.885110000000     0.074730000000     0.248540000000    -0.122692   
C315     C      0.852340000000     0.092320000000     0.231920000000     0.00886732 
C316     C      0.870340000000     0.629300000000     0.199220000000     0.00878628 
C317     C      0.920900000000     0.648330000000     0.181760000000    -0.123184   
C318     C      0.953470000000     0.630350000000     0.198070000000     0.0101079  
C319     C      0.877880000000     0.629510000000     0.481500000000     0.0101869  
C320     C      0.928730000000     0.649110000000     0.998540000000    -0.123869   
C321     C      0.961490000000     0.131520000000     0.981930000000     0.0132392  
C322     C      0.943500000000     0.094540000000     0.949220000000     0.0073418  
C323     C      0.892940000000     0.075510000000     0.431760000000    -0.122265   
C324     C      0.860370000000     0.593500000000     0.448060000000     0.0095501  
C325     C      0.954000000000     0.890860000000     0.482570000000     0.00960484 
C326     C      0.921500000000     0.840000000000     0.999070000000    -0.122079   
C327     C      0.870780000000     0.807850000000     0.981840000000     0.008376   
C328     C      0.852600000000     0.826490000000     0.949160000000     0.00886186 
C329     C      0.885310000000     0.877130000000     0.432310000000    -0.122844   
C330     C      0.936300000000     0.909030000000     0.449150000000     0.0095399  
C331     C      0.859840000000     0.832980000000     0.232570000000     0.00910823 
C332     C      0.892340000000     0.883840000000     0.249070000000    -0.122227   
C333     C      0.943050000000     0.915990000000     0.231840000000     0.0070329  
C334     C      0.961240000000     0.897350000000     0.199150000000     0.0128284  
C335     C      0.928530000000     0.846720000000     0.182310000000    -0.123934   
C336     C      0.877540000000     0.814810000000     0.199150000000     0.0100537  
C337     C      0.873360000000     0.903270000000     0.783980000000     0.477152   
C338     C      0.866200000000     0.896570000000     0.897500000000     0.476935   
C339     C      0.732860000000     0.903280000000     0.897510000000     0.478456   
C340     C      0.866180000000     0.035990000000     0.783320000000     0.477143   
C341     C      0.874120000000     0.037060000000     0.896780000000     0.47787    
C342     C      0.732240000000     0.895190000000     0.784100000000     0.478592   
C343     C      0.940480000000     0.820570000000     0.533980000000     0.476948   
C344     C      0.947640000000     0.827270000000     0.647500000000     0.477006   
C345     C      0.080980000000     0.820560000000     0.647510000000     0.477773   
C346     C      0.947660000000     0.687860000000     0.533320000000     0.47762    
C347     C      0.939720000000     0.686780000000     0.646780000000     0.477983   
C348     C      0.081600000000     0.828650000000     0.534100000000     0.478265   
C349     C      0.138990000000     0.898130000000     0.981890000000     0.00867922 
C350     C      0.120230000000     0.847790000000     0.499140000000    -0.124125   
C351     C      0.638630000000     0.815760000000     0.482670000000     0.0101604  
C352     C      0.674780000000     0.833560000000     0.449230000000     0.00980126 
C353     C      0.694080000000     0.884170000000     0.932360000000    -0.1239     
C354     C      0.676120000000     0.916430000000     0.949160000000     0.00901243 
C355     C      0.674850000000     0.825710000000     0.731890000000     0.00896668 
C356     C      0.693610000000     0.876050000000     0.749140000000    -0.123918   
C357     C      0.675210000000     0.908090000000     0.732670000000     0.00995599 
C358     C      0.139060000000     0.890280000000     0.699220000000     0.00957692 
C359     C      0.119760000000     0.839670000000     0.682360000000    -0.12395    
C360     C      0.137720000000     0.807410000000     0.699160000000     0.00884337 
C361     C      0.935960000000     0.094330000000     0.731500000000     0.00966496 
C362     C      0.885110000000     0.074730000000     0.748540000000    -0.122702   
C363     C      0.852340000000     0.092320000000     0.731930000000     0.00889685 
C364     C      0.870340000000     0.629300000000     0.699220000000     0.00875468 
C365     C      0.920900000000     0.648330000000     0.681770000000    -0.12308    
C366     C      0.953470000000     0.630350000000     0.698070000000     0.010075   
C367     C      0.877880000000     0.629510000000     0.981500000000     0.0100793  
C368     C      0.928730000000     0.649110000000     0.498530000000    -0.124235   
C369     C      0.961490000000     0.131520000000     0.481930000000     0.0133515  
C370     C      0.943500000000     0.094540000000     0.449220000000     0.00725342 
C371     C      0.892940000000     0.075510000000     0.931760000000    -0.122326   
C372     C      0.860370000000     0.593500000000     0.948070000000     0.0096409  
C373     C      0.954000000000     0.890860000000     0.982570000000     0.00946082 
C374     C      0.921500000000     0.840000000000     0.499070000000    -0.122528   
C375     C      0.870780000000     0.807850000000     0.481840000000     0.00851592 
C376     C      0.852600000000     0.826490000000     0.449160000000     0.00874005 
C377     C      0.885310000000     0.877130000000     0.932310000000    -0.122944   
C378     C      0.936300000000     0.909030000000     0.949150000000     0.00965689 
C379     C      0.859840000000     0.832980000000     0.732570000000     0.0091235  
C380     C      0.892340000000     0.883840000000     0.749070000000    -0.122226   
C381     C      0.943050000000     0.915990000000     0.731840000000     0.00704436 
C382     C      0.961240000000     0.897350000000     0.699150000000     0.012832   
C383     C      0.928530000000     0.846720000000     0.682310000000    -0.123917   
C384     C      0.877540000000     0.814810000000     0.699150000000     0.0100574  
Fe1      Fe     0.290880000000     0.379350000000     0.340750000000     1.34069    
Fe2      Fe     0.291340000000     0.477740000000     0.340430000000     1.34377    
Fe3      Fe     0.390480000000     0.478580000000     0.340410000000     1.33792    
Fe4      Fe     0.522960000000     0.344490000000     0.090750000000     1.34068    
Fe5      Fe     0.522500000000     0.246100000000     0.090430000000     1.34381    
Fe6      Fe     0.423360000000     0.245270000000     0.090410000000     1.33787    
Fe7      Fe     0.290880000000     0.379350000000     0.840750000000     1.34055    
Fe8      Fe     0.291340000000     0.477740000000     0.840430000000     1.34363    
Fe9      Fe     0.390480000000     0.478580000000     0.840410000000     1.33804    
Fe10     Fe     0.522960000000     0.344490000000     0.590750000000     1.34076    
Fe11     Fe     0.522500000000     0.246100000000     0.590430000000     1.34389    
Fe12     Fe     0.423360000000     0.245270000000     0.590410000000     1.33795    
Fe13     Fe     0.290880000000     0.879350000000     0.340750000000     1.34053    
Fe14     Fe     0.291340000000     0.977740000000     0.340430000000     1.34103    
Fe15     Fe     0.390480000000     0.978570000000     0.340410000000     1.33532    
Fe16     Fe     0.522960000000     0.844490000000     0.090750000000     1.34053    
Fe17     Fe     0.522500000000     0.746100000000     0.090430000000     1.34377    
Fe18     Fe     0.423360000000     0.745270000000     0.090410000000     1.3378     
Fe19     Fe     0.290880000000     0.879350000000     0.840750000000     1.34039    
Fe20     Fe     0.291340000000     0.977740000000     0.840430000000     1.3409     
Fe21     Fe     0.390480000000     0.978570000000     0.840410000000     1.33544    
Fe22     Fe     0.522960000000     0.844490000000     0.590750000000     1.34061    
Fe23     Fe     0.522500000000     0.746100000000     0.590430000000     1.34384    
Fe24     Fe     0.423360000000     0.745270000000     0.590410000000     1.33788    
Fe25     Fe     0.790880000000     0.379350000000     0.340750000000     1.34075    
Fe26     Fe     0.791340000000     0.477740000000     0.340430000000     1.34386    
Fe27     Fe     0.890480000000     0.478580000000     0.340410000000     1.33812    
Fe28     Fe     0.022960000000     0.344490000000     0.090750000000     1.33422    
Fe29     Fe     0.022500000000     0.246100000000     0.090430000000     1.33736    
Fe30     Fe     0.923360000000     0.245270000000     0.090410000000     1.33715    
Fe31     Fe     0.790880000000     0.379350000000     0.840750000000     1.34061    
Fe32     Fe     0.791340000000     0.477740000000     0.840430000000     1.34372    
Fe33     Fe     0.890480000000     0.478580000000     0.840410000000     1.33824    
Fe34     Fe     0.022960000000     0.344490000000     0.590750000000     1.3343     
Fe35     Fe     0.022500000000     0.246100000000     0.590430000000     1.33744    
Fe36     Fe     0.923360000000     0.245270000000     0.590410000000     1.33723    
Fe37     Fe     0.790880000000     0.879350000000     0.340750000000     1.34063    
Fe38     Fe     0.791340000000     0.977740000000     0.340430000000     1.34112    
Fe39     Fe     0.890480000000     0.978580000000     0.340410000000     1.33551    
Fe40     Fe     0.022960000000     0.844490000000     0.090750000000     1.33408    
Fe41     Fe     0.022500000000     0.746100000000     0.090430000000     1.33732    
Fe42     Fe     0.923360000000     0.745270000000     0.090410000000     1.33707    
Fe43     Fe     0.790880000000     0.879350000000     0.840750000000     1.34049    
Fe44     Fe     0.791340000000     0.977740000000     0.840430000000     1.34098    
Fe45     Fe     0.890480000000     0.978580000000     0.840410000000     1.33563    
Fe46     Fe     0.022960000000     0.844490000000     0.590750000000     1.33416    
Fe47     Fe     0.022500000000     0.746100000000     0.590430000000     1.33739    
Fe48     Fe     0.923360000000     0.745270000000     0.590410000000     1.33715    
H1       H      0.625530000000     0.423670000000     0.494090000000     0.0358777  
H2       H      0.124550000000     0.276660000000     0.995280000000     0.0380491  
H3       H      0.188200000000     0.308020000000     0.936950000000     0.0380645  
H4       H      0.190250000000     0.455580000000     0.436630000000     0.035699   
H5       H      0.188300000000     0.300170000000     0.244090000000     0.035745   
H6       H      0.189300000000     0.447190000000     0.245280000000     0.0380167  
H7       H      0.625640000000     0.415820000000     0.186950000000     0.038147   
H8       H      0.623580000000     0.268260000000     0.186640000000     0.0359308  
H9       H      0.461910000000     0.581240000000     0.243610000000     0.0381975  
H10      H      0.313000000000     0.577980000000     0.244570000000     0.0358657  
H11      H      0.344380000000     0.142430000000     0.187180000000     0.0359527  
H12      H      0.492760000000     0.144640000000     0.185320000000     0.0382949  
H13      H      0.351930000000     0.142610000000     0.493610000000     0.0382631  
H14      H      0.500840000000     0.645860000000     0.994570000000     0.0360997  
H15      H      0.469450000000     0.581410000000     0.937190000000     0.0359157  
H16      H      0.321080000000     0.079210000000     0.435320000000     0.0385024  
H17      H      0.493390000000     0.416350000000     0.495130000000     0.0382584  
H18      H      0.344840000000     0.268530000000     0.994020000000     0.0361346  
H19      H      0.313160000000     0.300990000000     0.936700000000     0.035999   
H20      H      0.462220000000     0.448310000000     0.436870000000     0.0382657  
H21      H      0.320450000000     0.307490000000     0.245130000000     0.038224   
H22      H      0.468990000000     0.455320000000     0.244010000000     0.0359951  
H23      H      0.500680000000     0.422860000000     0.186700000000     0.0360019  
H24      H      0.351620000000     0.275530000000     0.186880000000     0.0382348  
H25      H      0.625530000000     0.423670000000     0.994080000000     0.0359936  
H26      H      0.124550000000     0.276660000000     0.495280000000     0.0379312  
H27      H      0.188200000000     0.308020000000     0.436950000000     0.0380591  
H28      H      0.190250000000     0.455580000000     0.936640000000     0.0357048  
H29      H      0.188300000000     0.300170000000     0.744090000000     0.0357581  
H30      H      0.189300000000     0.447190000000     0.745280000000     0.0380295  
H31      H      0.625640000000     0.415820000000     0.686950000000     0.0381623  
H32      H      0.623580000000     0.268260000000     0.686640000000     0.0359488  
H33      H      0.461910000000     0.581240000000     0.743610000000     0.0382007  
H34      H      0.313000000000     0.577980000000     0.744570000000     0.0358693  
H35      H      0.344380000000     0.142430000000     0.687180000000     0.0359801  
H36      H      0.492760000000     0.144640000000     0.685320000000     0.0383216  
H37      H      0.351930000000     0.142610000000     0.993610000000     0.0383823  
H38      H      0.500840000000     0.645860000000     0.494570000000     0.0359815  
H39      H      0.469450000000     0.581410000000     0.437180000000     0.0359168  
H40      H      0.321080000000     0.079210000000     0.935320000000     0.0385018  
H41      H      0.493390000000     0.416350000000     0.995130000000     0.0383858  
H42      H      0.344840000000     0.268530000000     0.494010000000     0.0360078  
H43      H      0.313160000000     0.300990000000     0.436700000000     0.0360071  
H44      H      0.462220000000     0.448310000000     0.936880000000     0.0382528  
H45      H      0.320450000000     0.307490000000     0.745140000000     0.0382335  
H46      H      0.468990000000     0.455320000000     0.744010000000     0.0360031  
H47      H      0.500680000000     0.422860000000     0.686700000000     0.0360226  
H48      H      0.351620000000     0.275530000000     0.686880000000     0.0382542  
H49      H      0.625530000000     0.923670000000     0.494090000000     0.0356734  
H50      H      0.124550000000     0.776660000000     0.995280000000     0.0379786  
H51      H      0.188200000000     0.808020000000     0.936950000000     0.0379937  
H52      H      0.190250000000     0.955570000000     0.436630000000     0.035397   
H53      H      0.188300000000     0.800170000000     0.244090000000     0.0356756  
H54      H      0.189300000000     0.947190000000     0.245280000000     0.0376889  
H55      H      0.625650000000     0.915830000000     0.186950000000     0.0379613  
H56      H      0.623580000000     0.768260000000     0.186640000000     0.0358634  
H57      H      0.461910000000     0.081240000000     0.243610000000     0.0385676  
H58      H      0.313000000000     0.077980000000     0.244570000000     0.0362082  
H59      H      0.344380000000     0.642430000000     0.187180000000     0.0358234  
H60      H      0.492760000000     0.644640000000     0.185320000000     0.038184   
H61      H      0.351930000000     0.642610000000     0.493610000000     0.0381588  
H62      H      0.500840000000     0.145860000000     0.994570000000     0.0361821  
H63      H      0.469450000000     0.081410000000     0.937190000000     0.0362677  
H64      H      0.321080000000     0.579210000000     0.435320000000     0.0381178  
H65      H      0.493390000000     0.916350000000     0.495130000000     0.0380721  
H66      H      0.344840000000     0.768530000000     0.994020000000     0.0360546  
H67      H      0.313160000000     0.800990000000     0.936700000000     0.0359164  
H68      H      0.462220000000     0.948310000000     0.436870000000     0.0379296  
H69      H      0.320450000000     0.807490000000     0.245130000000     0.0381465  
H70      H      0.468990000000     0.955320000000     0.244010000000     0.0356934  
H71      H      0.500680000000     0.922860000000     0.186700000000     0.0358079  
H72      H      0.351620000000     0.775530000000     0.186880000000     0.0381712  
H73      H      0.625530000000     0.923670000000     0.994080000000     0.0357894  
H74      H      0.124550000000     0.776660000000     0.495280000000     0.0378606  
H75      H      0.188200000000     0.808020000000     0.436950000000     0.0379882  
H76      H      0.190250000000     0.955570000000     0.936640000000     0.0354029  
H77      H      0.188300000000     0.800170000000     0.744090000000     0.0356886  
H78      H      0.189300000000     0.947190000000     0.745280000000     0.0377016  
H79      H      0.625650000000     0.915830000000     0.686950000000     0.0379765  
H80      H      0.623580000000     0.768260000000     0.686640000000     0.0358814  
H81      H      0.461910000000     0.081240000000     0.743610000000     0.0385707  
H82      H      0.313000000000     0.077980000000     0.744570000000     0.0362111  
H83      H      0.344380000000     0.642430000000     0.687180000000     0.0358511  
H84      H      0.492760000000     0.644640000000     0.685320000000     0.0382107  
H85      H      0.351930000000     0.642610000000     0.993610000000     0.0382781  
H86      H      0.500840000000     0.145860000000     0.494570000000     0.036064   
H87      H      0.469450000000     0.081410000000     0.437180000000     0.0362689  
H88      H      0.321080000000     0.579210000000     0.935320000000     0.0381174  
H89      H      0.493390000000     0.916350000000     0.995130000000     0.0381995  
H90      H      0.344840000000     0.768530000000     0.494010000000     0.0359279  
H91      H      0.313160000000     0.800990000000     0.436700000000     0.0359244  
H92      H      0.462220000000     0.948310000000     0.936880000000     0.0379169  
H93      H      0.320450000000     0.807490000000     0.745140000000     0.038156   
H94      H      0.468990000000     0.955320000000     0.744010000000     0.0357012  
H95      H      0.500680000000     0.922860000000     0.686700000000     0.0358285  
H96      H      0.351620000000     0.775530000000     0.686880000000     0.0381905  
H97      H      0.125530000000     0.423670000000     0.494090000000     0.0355453  
H98      H      0.624550000000     0.276660000000     0.995280000000     0.0383484  
H99      H      0.688200000000     0.308020000000     0.936950000000     0.0382514  
H100     H      0.690250000000     0.455580000000     0.436630000000     0.0358993  
H101     H      0.688300000000     0.300170000000     0.244090000000     0.0359516  
H102     H      0.689300000000     0.447190000000     0.245280000000     0.0382035  
H103     H      0.125650000000     0.415820000000     0.186950000000     0.0378547  
H104     H      0.123580000000     0.268260000000     0.186640000000     0.0355942  
H105     H      0.961910000000     0.581240000000     0.243610000000     0.0385527  
H106     H      0.813000000000     0.577980000000     0.244570000000     0.035951   
H107     H      0.844380000000     0.142430000000     0.187180000000     0.0360869  
H108     H      0.992760000000     0.144640000000     0.185320000000     0.0390175  
H109     H      0.851930000000     0.142610000000     0.493610000000     0.0382147  
H110     H      0.000840000000     0.645860000000     0.994570000000     0.0328566  
H111     H      0.969450000000     0.581410000000     0.937190000000     0.0369312  
H112     H      0.821090000000     0.079210000000     0.435320000000     0.0387484  
H113     H      0.993390000000     0.416350000000     0.495130000000     0.038992   
H114     H      0.844840000000     0.268530000000     0.994020000000     0.0362905  
H115     H      0.813160000000     0.300990000000     0.936700000000     0.0360689  
H116     H      0.962220000000     0.448310000000     0.436870000000     0.0386143  
H117     H      0.820450000000     0.307490000000     0.245130000000     0.038482   
H118     H      0.968990000000     0.455320000000     0.244010000000     0.0370092  
H119     H      0.000680000000     0.422860000000     0.186700000000     0.0327484  
H120     H      0.851620000000     0.275530000000     0.186880000000     0.0381627  
H121     H      0.125530000000     0.423670000000     0.994080000000     0.0356628  
H122     H      0.624550000000     0.276660000000     0.495280000000     0.0382319  
H123     H      0.688200000000     0.308020000000     0.436950000000     0.0382462  
H124     H      0.690250000000     0.455580000000     0.936640000000     0.0359049  
H125     H      0.688300000000     0.300170000000     0.744090000000     0.035965   
H126     H      0.689300000000     0.447190000000     0.745270000000     0.0382155  
H127     H      0.125650000000     0.415820000000     0.686950000000     0.0378711  
H128     H      0.123580000000     0.268260000000     0.686640000000     0.0356127  
H129     H      0.961910000000     0.581240000000     0.743610000000     0.0385555  
H130     H      0.813000000000     0.577980000000     0.744570000000     0.0359546  
H131     H      0.844380000000     0.142430000000     0.687180000000     0.0361142  
H132     H      0.992760000000     0.144640000000     0.685320000000     0.0390441  
H133     H      0.851930000000     0.142610000000     0.993610000000     0.0383332  
H134     H      0.000840000000     0.645860000000     0.494570000000     0.0327323  
H135     H      0.969450000000     0.581410000000     0.437180000000     0.036934   
H136     H      0.821090000000     0.079210000000     0.935320000000     0.0387473  
H137     H      0.993390000000     0.416350000000     0.995130000000     0.0391173  
H138     H      0.844840000000     0.268530000000     0.494010000000     0.036165   
H139     H      0.813160000000     0.300990000000     0.436700000000     0.0360771  
H140     H      0.962220000000     0.448310000000     0.936880000000     0.038601   
H141     H      0.820450000000     0.307490000000     0.745140000000     0.0384913  
H142     H      0.968990000000     0.455320000000     0.744010000000     0.0370165  
H143     H      0.000680000000     0.422860000000     0.686700000000     0.0327702  
H144     H      0.851620000000     0.275530000000     0.686880000000     0.0381821  
H145     H      0.125530000000     0.923670000000     0.494090000000     0.0353433  
H146     H      0.624550000000     0.776660000000     0.995280000000     0.0382779  
H147     H      0.688200000000     0.808020000000     0.936950000000     0.0381814  
H148     H      0.690250000000     0.955570000000     0.436630000000     0.0355954  
H149     H      0.688300000000     0.800170000000     0.244090000000     0.0358814  
H150     H      0.689300000000     0.947190000000     0.245280000000     0.037871   
H151     H      0.125650000000     0.915830000000     0.186950000000     0.0376648  
H152     H      0.123580000000     0.768260000000     0.186640000000     0.0355247  
H153     H      0.961910000000     0.081240000000     0.243610000000     0.0389276  
H154     H      0.813000000000     0.077980000000     0.244570000000     0.0362985  
H155     H      0.844390000000     0.642430000000     0.187180000000     0.0359858  
H156     H      0.992760000000     0.644640000000     0.185320000000     0.0389181  
H157     H      0.851930000000     0.642610000000     0.493610000000     0.0380877  
H158     H      0.000840000000     0.145860000000     0.994570000000     0.0329518  
H159     H      0.969450000000     0.081410000000     0.937190000000     0.0372629  
H160     H      0.821080000000     0.579210000000     0.435320000000     0.0383746  
H161     H      0.993390000000     0.916350000000     0.495130000000     0.0387981  
H162     H      0.844840000000     0.768530000000     0.994020000000     0.0362025  
H163     H      0.813160000000     0.800990000000     0.936700000000     0.0360074  
H164     H      0.962220000000     0.948310000000     0.436870000000     0.0382828  
H165     H      0.820450000000     0.807490000000     0.245130000000     0.0384013  
H166     H      0.968990000000     0.955320000000     0.244010000000     0.0366896  
H167     H      0.000680000000     0.922860000000     0.186700000000     0.0325706  
H168     H      0.851620000000     0.775530000000     0.186880000000     0.0381041  
H169     H      0.125530000000     0.923670000000     0.994080000000     0.0354608  
H170     H      0.624550000000     0.776660000000     0.495280000000     0.0381614  
H171     H      0.688200000000     0.808020000000     0.436950000000     0.0381761  
H172     H      0.690250000000     0.955570000000     0.936640000000     0.0356012  
H173     H      0.688300000000     0.800170000000     0.744090000000     0.0358948  
H174     H      0.689300000000     0.947190000000     0.745270000000     0.0378829  
H175     H      0.125650000000     0.915830000000     0.686950000000     0.037681   
H176     H      0.123580000000     0.768260000000     0.686640000000     0.0355431  
H177     H      0.961910000000     0.081240000000     0.743610000000     0.0389305  
H178     H      0.813000000000     0.077980000000     0.744570000000     0.0363014  
H179     H      0.844390000000     0.642430000000     0.687180000000     0.0360134  
H180     H      0.992760000000     0.644640000000     0.685320000000     0.0389446  
H181     H      0.851930000000     0.642610000000     0.993610000000     0.0382063  
H182     H      0.000840000000     0.145860000000     0.494570000000     0.0328276  
H183     H      0.969450000000     0.081410000000     0.437180000000     0.0372658  
H184     H      0.821080000000     0.579210000000     0.935320000000     0.0383737  
H185     H      0.993390000000     0.916350000000     0.995130000000     0.0389234  
H186     H      0.844840000000     0.768530000000     0.494010000000     0.0360771  
H187     H      0.813160000000     0.800990000000     0.436700000000     0.0360155  
H188     H      0.962220000000     0.948310000000     0.936880000000     0.0382696  
H189     H      0.820450000000     0.807490000000     0.745140000000     0.0384106  
H190     H      0.968990000000     0.955320000000     0.744010000000     0.0366968  
H191     H      0.000680000000     0.922860000000     0.686700000000     0.0325923  
H192     H      0.851620000000     0.775530000000     0.686880000000     0.0381234  
O1       O      0.398510000000     0.430260000000     0.371620000000    -0.482154   
O2       O      0.317440000000     0.506210000000     0.289200000000    -0.491944   
O3       O      0.317430000000     0.377140000000     0.391790000000    -0.490767   
O4       O      0.339630000000     0.371310000000     0.309990000000    -0.483698   
O5       O      0.393310000000     0.507960000000     0.391330000000    -0.489793   
O6       O      0.233790000000     0.428420000000     0.310110000000    -0.485253   
O7       O      0.324280000000     0.445220000000     0.340530000000    -0.860894   
O8       O      0.262680000000     0.451790000000     0.391670000000    -0.492009   
O9       O      0.233920000000     0.371160000000     0.371660000000    -0.483462   
O10      O      0.392890000000     0.451830000000     0.289500000000    -0.489602   
O11      O      0.261700000000     0.376380000000     0.289690000000    -0.490804   
O12      O      0.340660000000     0.535200000000     0.370690000000    -0.485289   
O13      O      0.398570000000     0.535000000000     0.309110000000    -0.482122   
O14      O      0.415330000000     0.293580000000     0.121620000000    -0.482185   
O15      O      0.496400000000     0.217630000000     0.039200000000    -0.491892   
O16      O      0.496410000000     0.346700000000     0.141790000000    -0.490623   
O17      O      0.474210000000     0.352530000000     0.059990000000    -0.483676   
O18      O      0.420520000000     0.215880000000     0.141330000000    -0.489629   
O19      O      0.580050000000     0.295430000000     0.060110000000    -0.485164   
O20      O      0.489560000000     0.278620000000     0.090530000000    -0.860904   
O21      O      0.551160000000     0.272060000000     0.141670000000    -0.491978   
O22      O      0.579920000000     0.352680000000     0.121660000000    -0.483471   
O23      O      0.420950000000     0.272010000000     0.039500000000    -0.489657   
O24      O      0.552140000000     0.347460000000     0.039690000000    -0.490838   
O25      O      0.473180000000     0.188640000000     0.120690000000    -0.485139   
O26      O      0.415260000000     0.188840000000     0.059110000000    -0.481914   
O27      O      0.398510000000     0.430260000000     0.871620000000    -0.482063   
O28      O      0.317440000000     0.506210000000     0.789200000000    -0.491918   
O29      O      0.317430000000     0.377140000000     0.891790000000    -0.490692   
O30      O      0.339630000000     0.371310000000     0.809990000000    -0.48368    
O31      O      0.393310000000     0.507960000000     0.891320000000    -0.489899   
O32      O      0.233790000000     0.428420000000     0.810110000000    -0.485239   
O33      O      0.324280000000     0.445220000000     0.840530000000    -0.860874   
O34      O      0.262680000000     0.451790000000     0.891680000000    -0.491888   
O35      O      0.233920000000     0.371160000000     0.871660000000    -0.483452   
O36      O      0.392890000000     0.451830000000     0.789500000000    -0.489615   
O37      O      0.261700000000     0.376380000000     0.789680000000    -0.490683   
O38      O      0.340660000000     0.535200000000     0.870690000000    -0.485279   
O39      O      0.398570000000     0.535000000000     0.809110000000    -0.482122   
O40      O      0.415330000000     0.293580000000     0.621620000000    -0.482168   
O41      O      0.496400000000     0.217630000000     0.539200000000    -0.49187    
O42      O      0.496410000000     0.346700000000     0.641790000000    -0.490625   
O43      O      0.474210000000     0.352530000000     0.559990000000    -0.483695   
O44      O      0.420520000000     0.215880000000     0.641330000000    -0.489614   
O45      O      0.580050000000     0.295430000000     0.560110000000    -0.485167   
O46      O      0.489560000000     0.278620000000     0.590530000000    -0.860953   
O47      O      0.551160000000     0.272060000000     0.641670000000    -0.49198    
O48      O      0.579920000000     0.352680000000     0.621660000000    -0.483456   
O49      O      0.420950000000     0.272010000000     0.539500000000    -0.489652   
O50      O      0.552140000000     0.347460000000     0.539690000000    -0.490818   
O51      O      0.473180000000     0.188640000000     0.620690000000    -0.485106   
O52      O      0.415260000000     0.188840000000     0.559110000000    -0.481917   
O53      O      0.398500000000     0.930260000000     0.371620000000    -0.482343   
O54      O      0.317440000000     0.006210000000     0.289200000000    -0.490231   
O55      O      0.317430000000     0.877150000000     0.391790000000    -0.490754   
O56      O      0.339630000000     0.871310000000     0.309990000000    -0.48367    
O57      O      0.393320000000     0.007960000000     0.391330000000    -0.487991   
O58      O      0.233790000000     0.928420000000     0.310110000000    -0.485146   
O59      O      0.324280000000     0.945220000000     0.340530000000    -0.860426   
O60      O      0.262680000000     0.951790000000     0.391670000000    -0.492127   
O61      O      0.233920000000     0.871160000000     0.371660000000    -0.483419   
O62      O      0.392890000000     0.951830000000     0.289500000000    -0.489783   
O63      O      0.261700000000     0.876380000000     0.289690000000    -0.49082    
O64      O      0.340660000000     0.035200000000     0.370690000000    -0.483932   
O65      O      0.398580000000     0.035000000000     0.309110000000    -0.480648   
O66      O      0.415330000000     0.793580000000     0.121620000000    -0.482285   
O67      O      0.496400000000     0.717630000000     0.039200000000    -0.491905   
O68      O      0.496410000000     0.846700000000     0.141790000000    -0.490687   
O69      O      0.474210000000     0.852530000000     0.059990000000    -0.48376    
O70      O      0.420530000000     0.715880000000     0.141330000000    -0.489758   
O71      O      0.580050000000     0.795430000000     0.060110000000    -0.485218   
O72      O      0.489560000000     0.778620000000     0.090530000000    -0.860838   
O73      O      0.551160000000     0.772050000000     0.141670000000    -0.491972   
O74      O      0.579920000000     0.852680000000     0.121660000000    -0.483449   
O75      O      0.420950000000     0.772010000000     0.039500000000    -0.489676   
O76      O      0.552140000000     0.847460000000     0.039690000000    -0.490884   
O77      O      0.473180000000     0.688640000000     0.120690000000    -0.485267   
O78      O      0.415260000000     0.688840000000     0.059110000000    -0.481997   
O79      O      0.398500000000     0.930260000000     0.871620000000    -0.482252   
O80      O      0.317440000000     0.006210000000     0.789200000000    -0.490204   
O81      O      0.317430000000     0.877150000000     0.891790000000    -0.490679   
O82      O      0.339630000000     0.871310000000     0.809990000000    -0.483652   
O83      O      0.393320000000     0.007960000000     0.891320000000    -0.488098   
O84      O      0.233790000000     0.928420000000     0.810110000000    -0.485132   
O85      O      0.324280000000     0.945220000000     0.840530000000    -0.860406   
O86      O      0.262680000000     0.951790000000     0.891680000000    -0.492006   
O87      O      0.233920000000     0.871160000000     0.871660000000    -0.483409   
O88      O      0.392890000000     0.951830000000     0.789500000000    -0.489796   
O89      O      0.261700000000     0.876380000000     0.789680000000    -0.490699   
O90      O      0.340660000000     0.035200000000     0.870690000000    -0.483922   
O91      O      0.398580000000     0.035000000000     0.809110000000    -0.480648   
O92      O      0.415330000000     0.793580000000     0.621620000000    -0.482268   
O93      O      0.496400000000     0.717630000000     0.539200000000    -0.491884   
O94      O      0.496410000000     0.846700000000     0.641790000000    -0.490689   
O95      O      0.474210000000     0.852530000000     0.559990000000    -0.483779   
O96      O      0.420530000000     0.715880000000     0.641330000000    -0.489743   
O97      O      0.580050000000     0.795430000000     0.560110000000    -0.485222   
O98      O      0.489560000000     0.778620000000     0.590530000000    -0.860887   
O99      O      0.551160000000     0.772050000000     0.641670000000    -0.491974   
O100     O      0.579920000000     0.852680000000     0.621660000000    -0.483433   
O101     O      0.420950000000     0.772010000000     0.539500000000    -0.489671   
O102     O      0.552140000000     0.847460000000     0.539690000000    -0.490864   
O103     O      0.473180000000     0.688640000000     0.620690000000    -0.485233   
O104     O      0.415260000000     0.688840000000     0.559110000000    -0.482      
O105     O      0.898510000000     0.430260000000     0.371620000000    -0.481984   
O106     O      0.817440000000     0.506210000000     0.289200000000    -0.491922   
O107     O      0.817430000000     0.377140000000     0.391790000000    -0.490636   
O108     O      0.839630000000     0.371310000000     0.309990000000    -0.483538   
O109     O      0.893310000000     0.507960000000     0.391330000000    -0.489515   
O110     O      0.733790000000     0.428420000000     0.310110000000    -0.485112   
O111     O      0.824280000000     0.445220000000     0.340530000000    -0.860987   
O112     O      0.762680000000     0.451790000000     0.391670000000    -0.491973   
O113     O      0.733920000000     0.371160000000     0.371660000000    -0.48332    
O114     O      0.892890000000     0.451830000000     0.289500000000    -0.489403   
O115     O      0.761700000000     0.376380000000     0.289690000000    -0.490759   
O116     O      0.840660000000     0.535200000000     0.370690000000    -0.485198   
O117     O      0.898570000000     0.535000000000     0.309110000000    -0.481936   
O118     O      0.915330000000     0.293580000000     0.121620000000    -0.481882   
O119     O      0.996400000000     0.217630000000     0.039200000000    -0.489296   
O120     O      0.996410000000     0.346700000000     0.141790000000    -0.488034   
O121     O      0.974210000000     0.352530000000     0.059990000000    -0.481529   
O122     O      0.920530000000     0.215880000000     0.141330000000    -0.489178   
O123     O      0.080050000000     0.295430000000     0.060110000000    -0.484547   
O124     O      0.989560000000     0.278620000000     0.090530000000    -0.856747   
O125     O      0.051160000000     0.272060000000     0.141670000000    -0.491987   
O126     O      0.079920000000     0.352680000000     0.121660000000    -0.482862   
O127     O      0.920950000000     0.272010000000     0.039500000000    -0.489106   
O128     O      0.052140000000     0.347460000000     0.039690000000    -0.490847   
O129     O      0.973180000000     0.188640000000     0.120690000000    -0.483045   
O130     O      0.915260000000     0.188840000000     0.059110000000    -0.481603   
O131     O      0.898510000000     0.430260000000     0.871620000000    -0.481893   
O132     O      0.817440000000     0.506210000000     0.789200000000    -0.491896   
O133     O      0.817430000000     0.377140000000     0.891790000000    -0.490561   
O134     O      0.839630000000     0.371310000000     0.809990000000    -0.48352    
O135     O      0.893310000000     0.507960000000     0.891320000000    -0.489621   
O136     O      0.733790000000     0.428420000000     0.810110000000    -0.485096   
O137     O      0.824280000000     0.445220000000     0.840530000000    -0.860967   
O138     O      0.762680000000     0.451790000000     0.891680000000    -0.491851   
O139     O      0.733920000000     0.371160000000     0.871660000000    -0.48331    
O140     O      0.892890000000     0.451830000000     0.789500000000    -0.489416   
O141     O      0.761700000000     0.376380000000     0.789680000000    -0.490637   
O142     O      0.840660000000     0.535200000000     0.870690000000    -0.485188   
O143     O      0.898570000000     0.535000000000     0.809110000000    -0.481936   
O144     O      0.915330000000     0.293580000000     0.621620000000    -0.481865   
O145     O      0.996400000000     0.217630000000     0.539200000000    -0.489273   
O146     O      0.996410000000     0.346700000000     0.641790000000    -0.488037   
O147     O      0.974210000000     0.352530000000     0.559990000000    -0.481548   
O148     O      0.920530000000     0.215880000000     0.641330000000    -0.489163   
O149     O      0.080050000000     0.295430000000     0.560110000000    -0.48455    
O150     O      0.989560000000     0.278620000000     0.590530000000    -0.856796   
O151     O      0.051160000000     0.272060000000     0.641670000000    -0.491989   
O152     O      0.079920000000     0.352680000000     0.621660000000    -0.482846   
O153     O      0.920950000000     0.272010000000     0.539500000000    -0.489102   
O154     O      0.052140000000     0.347460000000     0.539690000000    -0.490828   
O155     O      0.973180000000     0.188640000000     0.620690000000    -0.483012   
O156     O      0.915260000000     0.188840000000     0.559110000000    -0.481606   
O157     O      0.898500000000     0.930260000000     0.371620000000    -0.48206    
O158     O      0.817440000000     0.006210000000     0.289200000000    -0.490222   
O159     O      0.817430000000     0.877150000000     0.391790000000    -0.490716   
O160     O      0.839630000000     0.871310000000     0.309990000000    -0.483505   
O161     O      0.893310000000     0.007960000000     0.391330000000    -0.487873   
O162     O      0.733790000000     0.928420000000     0.310110000000    -0.485006   
O163     O      0.824280000000     0.945220000000     0.340530000000    -0.860519   
O164     O      0.762680000000     0.951790000000     0.391670000000    -0.49209    
O165     O      0.733920000000     0.871160000000     0.371660000000    -0.483279   
O166     O      0.892890000000     0.951830000000     0.289500000000    -0.489534   
O167     O      0.761700000000     0.876380000000     0.289690000000    -0.490781   
O168     O      0.840660000000     0.035200000000     0.370690000000    -0.4839     
O169     O      0.898580000000     0.035000000000     0.309110000000    -0.480567   
O170     O      0.915330000000     0.793580000000     0.121620000000    -0.481977   
O171     O      0.996400000000     0.717630000000     0.039200000000    -0.489314   
O172     O      0.996410000000     0.846700000000     0.141790000000    -0.488106   
O173     O      0.974210000000     0.852530000000     0.059990000000    -0.48162    
O174     O      0.920530000000     0.715880000000     0.141330000000    -0.489129   
O175     O      0.080050000000     0.795430000000     0.060110000000    -0.484601   
O176     O      0.989560000000     0.778620000000     0.090530000000    -0.856694   
O177     O      0.051160000000     0.772050000000     0.141670000000    -0.491988   
O178     O      0.079920000000     0.852680000000     0.121660000000    -0.482842   
O179     O      0.920950000000     0.772010000000     0.039500000000    -0.489125   
O180     O      0.052140000000     0.847460000000     0.039690000000    -0.490892   
O181     O      0.973180000000     0.688640000000     0.120690000000    -0.483191   
O182     O      0.915260000000     0.688840000000     0.059110000000    -0.481684   
O183     O      0.898500000000     0.930260000000     0.871620000000    -0.48197    
O184     O      0.817440000000     0.006210000000     0.789200000000    -0.490195   
O185     O      0.817430000000     0.877150000000     0.891790000000    -0.490641   
O186     O      0.839630000000     0.871310000000     0.809990000000    -0.483488   
O187     O      0.893310000000     0.007960000000     0.891320000000    -0.48798    
O188     O      0.733790000000     0.928420000000     0.810110000000    -0.484991   
O189     O      0.824280000000     0.945220000000     0.840530000000    -0.860498   
O190     O      0.762680000000     0.951790000000     0.891680000000    -0.491968   
O191     O      0.733920000000     0.871160000000     0.871660000000    -0.48327    
O192     O      0.892890000000     0.951830000000     0.789500000000    -0.489547   
O193     O      0.761700000000     0.876380000000     0.789680000000    -0.49066    
O194     O      0.840660000000     0.035200000000     0.870690000000    -0.483891   
O195     O      0.898580000000     0.035000000000     0.809110000000    -0.480567   
O196     O      0.915330000000     0.793580000000     0.621620000000    -0.48196    
O197     O      0.996400000000     0.717630000000     0.539200000000    -0.489292   
O198     O      0.996410000000     0.846700000000     0.641790000000    -0.488108   
O199     O      0.974210000000     0.852530000000     0.559990000000    -0.481639   
O200     O      0.920530000000     0.715880000000     0.641330000000    -0.489114   
O201     O      0.080050000000     0.795430000000     0.560110000000    -0.484604   
O202     O      0.989560000000     0.778620000000     0.590530000000    -0.856743   
O203     O      0.051160000000     0.772050000000     0.641670000000    -0.49199    
O204     O      0.079920000000     0.852680000000     0.621660000000    -0.482826   
O205     O      0.920950000000     0.772010000000     0.539500000000    -0.48912    
O206     O      0.052140000000     0.847460000000     0.539690000000    -0.490873   
O207     O      0.973180000000     0.688640000000     0.620690000000    -0.483158   
O208     O      0.915260000000     0.688840000000     0.559110000000    -0.481687   


