data_structure

_audit_creation_method RASPA-1.0
_audit_creation_date 2023-5-22
_audit_author_name 'Poobodin Mano'

_cell_length_a    38.1212
_cell_length_b    38.1588
_cell_length_c    38.1776
_cell_angle_alpha 90.104
_cell_angle_beta  90.0002
_cell_angle_gamma 89.9577
_cell_volume      55535.3

_symmetry_cell_setting          triclinic
_symmetry_space_group_name_Hall 'P 1'
_symmetry_space_group_name_H-M  'P 1'
_symmetry_Int_Tables_number     1

_symmetry_equiv_pos_as_xyz 'x,y,z'

loop_
_atom_site_label
_atom_site_type_symbol
_atom_site_fract_x
_atom_site_fract_y
_atom_site_fract_z
_atom_site_charge
C1       C      0.217940000000     0.572290000000     0.285790000000     0.485522   
C2       C      0.283010000000     0.572770000000     0.217720000000     0.489203   
C3       C      0.221050000000     0.516990000000     0.153890000000     0.487494   
C4       C      0.214620000000     0.465750000000     0.283360000000     0.494493   
C5       C      0.286120000000     0.468170000000     0.222480000000     0.492109   
C6       C      0.153610000000     0.522410000000     0.219840000000     0.489509   
C7       C      0.755920000000     0.567260000000     0.218200000000     0.489639   
C8       C      0.823620000000     0.569740000000     0.283180000000     0.489171   
C9       C      0.889270000000     0.514860000000     0.220850000000     0.491619   
C10      C      0.760650000000     0.462810000000     0.212170000000     0.492231   
C11      C      0.822540000000     0.463880000000     0.283270000000     0.485522   
C12      C      0.824540000000     0.520930000000     0.152420000000     0.48818    
C13      C      0.574420000000     0.820750000000     0.287070000000     0.491811   
C14      C      0.577330000000     0.757600000000     0.217240000000     0.493576   
C15      C      0.521080000000     0.819600000000     0.154370000000     0.489705   
C16      C      0.468900000000     0.823500000000     0.283270000000     0.493308   
C17      C      0.471890000000     0.753450000000     0.220700000000     0.491364   
C18      C      0.524770000000     0.886490000000     0.221010000000     0.486376   
C19      C      0.470020000000     0.217790000000     0.286190000000     0.487418   
C20      C      0.467590000000     0.280310000000     0.216020000000     0.492268   
C21      C      0.524750000000     0.216560000000     0.154160000000     0.491967   
C22      C      0.575100000000     0.215100000000     0.283980000000     0.487656   
C23      C      0.572820000000     0.283260000000     0.219250000000     0.488773   
C24      C      0.518900000000     0.150770000000     0.221320000000     0.48827    
C25      C      0.576340000000     0.216120000000     0.758900000000     0.485824   
C26      C      0.576560000000     0.280350000000     0.827780000000     0.491099   
C27      C      0.519670000000     0.216800000000     0.890080000000     0.493542   
C28      C      0.470810000000     0.211870000000     0.759780000000     0.491987   
C29      C      0.471260000000     0.281470000000     0.823150000000     0.486809   
C30      C      0.527570000000     0.150070000000     0.823750000000     0.492986   
C31      C      0.822570000000     0.282800000000     0.572270000000     0.487618   
C32      C      0.760010000000     0.212480000000     0.574830000000     0.489679   
C33      C      0.824900000000     0.150330000000     0.518360000000     0.48916    
C34      C      0.825440000000     0.280080000000     0.467530000000     0.487857   
C35      C      0.757880000000     0.214650000000     0.469630000000     0.483415   
C36      C      0.890110000000     0.218120000000     0.524600000000     0.492667   
C37      C      0.286610000000     0.220610000000     0.574380000000     0.489186   
C38      C      0.214400000000     0.281010000000     0.576580000000     0.495911   
C39      C      0.154770000000     0.216190000000     0.518670000000     0.491454   
C40      C      0.285180000000     0.217920000000     0.469630000000     0.489226   
C41      C      0.218720000000     0.284480000000     0.471120000000     0.486527   
C42      C      0.223630000000     0.151790000000     0.524750000000     0.491961   
C43      C      0.222000000000     0.468330000000     0.756970000000     0.487304   
C44      C      0.286560000000     0.465270000000     0.825440000000     0.488346   
C45      C      0.223410000000     0.521820000000     0.889690000000     0.489429   
C46      C      0.220140000000     0.573460000000     0.760160000000     0.4897     
C47      C      0.289530000000     0.569910000000     0.823680000000     0.487615   
C48      C      0.156730000000     0.516270000000     0.823240000000     0.492657   
C49      C      0.287980000000     0.818430000000     0.471490000000     0.487525   
C50      C      0.217160000000     0.756570000000     0.469610000000     0.491098   
C51      C      0.155920000000     0.822370000000     0.526490000000     0.493402   
C52      C      0.286380000000     0.822470000000     0.575900000000     0.487194   
C53      C      0.219710000000     0.756020000000     0.575060000000     0.482505   
C54      C      0.224010000000     0.887360000000     0.518650000000     0.493574   
C55      C      0.823040000000     0.754760000000     0.468010000000     0.48581    
C56      C      0.762240000000     0.826650000000     0.467240000000     0.492574   
C57      C      0.826960000000     0.886080000000     0.524600000000     0.486645   
C58      C      0.826370000000     0.755710000000     0.573380000000     0.487138   
C59      C      0.758980000000     0.821370000000     0.572470000000     0.484948   
C60      C      0.891520000000     0.817420000000     0.518200000000     0.490053   
C61      C      0.471310000000     0.818120000000     0.759660000000     0.485389   
C62      C      0.470900000000     0.756510000000     0.830780000000     0.49353    
C63      C      0.529270000000     0.821450000000     0.890220000000     0.492102   
C64      C      0.576470000000     0.820940000000     0.759120000000     0.486799   
C65      C      0.576080000000     0.754030000000     0.825080000000     0.485032   
C66      C      0.521140000000     0.886120000000     0.822140000000     0.494195   
C67      C      0.828170000000     0.570070000000     0.755960000000     0.484106   
C68      C      0.761980000000     0.571230000000     0.822880000000     0.485637   
C69      C      0.823850000000     0.516100000000     0.888280000000     0.489013   
C70      C      0.831780000000     0.463950000000     0.759040000000     0.496504   
C71      C      0.759650000000     0.466790000000     0.819310000000     0.490004   
C72      C      0.891940000000     0.521570000000     0.823220000000     0.488489   
C73      C      0.659420000000     0.705020000000     0.847410000000    -0.0772509  
C74      C      0.649130000000     0.670000000000     0.842660000000     0.0286164  
C75      C      0.613660000000     0.662680000000     0.835520000000    -0.0772546  
C76      C      0.589470000000     0.689900000000     0.831210000000     0.0469401  
C77      C      0.600280000000     0.725000000000     0.833910000000    -0.15443    
C78      C      0.635270000000     0.732200000000     0.843110000000     0.0488133  
C79      C      0.676000000000     0.641820000000     0.841130000000     0.029036   
C80      C      0.674630000000     0.616860000000     0.814100000000    -0.0779134  
C81      C      0.702060000000     0.593220000000     0.809210000000     0.0504237  
C82      C      0.731590000000     0.593840000000     0.831240000000    -0.154896   
C83      C      0.732310000000     0.617540000000     0.859440000000     0.047552   
C84      C      0.704800000000     0.641460000000     0.864240000000    -0.0771915  
C85      C      0.817680000000     0.668400000000     0.618810000000    -0.0782507  
C86      C      0.844450000000     0.669960000000     0.644030000000     0.029092   
C87      C      0.867390000000     0.698880000000     0.643910000000    -0.0776055  
C88      C      0.862670000000     0.726300000000     0.619980000000     0.0476863  
C89      C      0.834710000000     0.725390000000     0.596010000000    -0.15605    
C90      C      0.812880000000     0.695740000000     0.595140000000     0.0502009  
C91      C      0.845880000000     0.643120000000     0.672170000000     0.0282959  
C92      C      0.850380000000     0.653410000000     0.707230000000    -0.0770656  
C93      C      0.846070000000     0.629270000000     0.734330000000     0.0484353  
C94      C      0.837090000000     0.594270000000     0.727020000000    -0.154256   
C95      C      0.834620000000     0.583460000000     0.691900000000     0.0465398  
C96      C      0.838950000000     0.607640000000     0.664760000000    -0.0770757  
C97      C      0.667560000000     0.831400000000     0.610430000000    -0.0771005  
C98      C      0.674970000000     0.839130000000     0.645740000000     0.0282046  
C99      C      0.710060000000     0.844290000000     0.655740000000    -0.0772474  
C100     C      0.737180000000     0.839900000000     0.631510000000     0.0480763  
C101     C      0.729890000000     0.830180000000     0.596710000000    -0.154592   
C102     C      0.694720000000     0.826980000000     0.586160000000     0.0463794  
C103     C      0.646870000000     0.837990000000     0.672760000000     0.0288821  
C104     C      0.646670000000     0.861410000000     0.701350000000    -0.0774809  
C105     C      0.622810000000     0.857030000000     0.728950000000     0.0473425  
C106     C      0.598960000000     0.828970000000     0.728560000000    -0.155876   
C107     C      0.598160000000     0.806660000000     0.699230000000     0.0499351  
C108     C      0.621760000000     0.811110000000     0.671720000000    -0.0780889  
C109     C      0.063910000000     0.807010000000     0.493430000000    -0.0777302  
C110     C      0.043390000000     0.814790000000     0.523140000000     0.0296085  
C111     C      0.060760000000     0.824280000000     0.554410000000    -0.0775554  
C112     C      0.097390000000     0.825880000000     0.555850000000     0.0516144  
C113     C      0.117430000000     0.819150000000     0.525820000000    -0.158961   
C114     C      0.100420000000     0.809710000000     0.494640000000     0.0521975  
C115     C      0.004190000000     0.813720000000     0.521340000000     0.029446   
C116     C      0.986390000000     0.821340000000     0.489830000000    -0.0775054  
C117     C      0.949730000000     0.821240000000     0.488420000000     0.0513863  
C118     C      0.930030000000     0.814600000000     0.518660000000    -0.158132   
C119     C      0.947460000000     0.806790000000     0.550040000000     0.0516681  
C120     C      0.984070000000     0.805790000000     0.551250000000    -0.077508   
C121     C      0.343470000000     0.861440000000     0.647500000000    -0.0775285  
C122     C      0.372150000000     0.838100000000     0.647190000000     0.0293523  
C123     C      0.373580000000     0.812110000000     0.621160000000    -0.0782762  
C124     C      0.346310000000     0.808330000000     0.597200000000     0.051285   
C125     C      0.316820000000     0.830410000000     0.598550000000    -0.156172   
C126     C      0.316080000000     0.857730000000     0.623250000000     0.0479182  
C127     C      0.398820000000     0.838210000000     0.675620000000     0.0283275  
C128     C      0.434210000000     0.830510000000     0.668380000000    -0.0766426  
C129     C      0.458110000000     0.825000000000     0.695600000000     0.0467856  
C130     C      0.447160000000     0.827190000000     0.730680000000    -0.153928   
C131     C      0.412260000000     0.836800000000     0.737890000000     0.0484753  
C132     C      0.388360000000     0.842190000000     0.710700000000    -0.0769899  
C133     C      0.986600000000     0.550670000000     0.827470000000    -0.0770632  
C134     C      0.004710000000     0.519390000000     0.819470000000     0.02906    
C135     C      0.984840000000     0.489130000000     0.812040000000    -0.0766607  
C136     C      0.948230000000     0.489890000000     0.813550000000     0.0508396  
C137     C      0.930520000000     0.521150000000     0.821360000000    -0.156736   
C138     C      0.949940000000     0.551640000000     0.827830000000     0.0508178  
C139     C      0.043970000000     0.518230000000     0.819380000000     0.029815   
C140     C      0.063800000000     0.548310000000     0.811230000000    -0.0777055  
C141     C      0.100420000000     0.547600000000     0.812660000000     0.0520691  
C142     C      0.118170000000     0.516550000000     0.821090000000    -0.159302   
C143     C      0.098790000000     0.486210000000     0.828210000000     0.051784   
C144     C      0.062120000000     0.487150000000     0.827930000000    -0.0779295  
C145     C      0.341210000000     0.644560000000     0.863360000000    -0.0773574  
C146     C      0.372570000000     0.643360000000     0.843880000000     0.0290053  
C147     C      0.377200000000     0.615700000000     0.819740000000    -0.0772014  
C148     C      0.350920000000     0.590730000000     0.814500000000     0.0502438  
C149     C      0.319000000000     0.593310000000     0.832550000000    -0.156648   
C150     C      0.314570000000     0.620100000000     0.857410000000     0.0504373  
C151     C      0.399140000000     0.672050000000     0.846570000000     0.0298648  
C152     C      0.388710000000     0.706950000000     0.853190000000    -0.0781005  
C153     C      0.412840000000     0.734460000000     0.850860000000     0.0523815  
C154     C      0.447600000000     0.727710000000     0.841090000000    -0.160837   
C155     C      0.458600000000     0.693010000000     0.836170000000     0.0525054  
C156     C      0.434810000000     0.665420000000     0.839530000000    -0.0781433  
C157     C      0.179270000000     0.645470000000     0.704990000000    -0.0776603  
C158     C      0.200980000000     0.644620000000     0.675120000000     0.0295782  
C159     C      0.226560000000     0.618260000000     0.672490000000    -0.0784522  
C160     C      0.231520000000     0.594450000000     0.699630000000     0.0516104  
C161     C      0.211070000000     0.596280000000     0.730210000000    -0.156745   
C162     C      0.184160000000     0.621360000000     0.732270000000     0.0483685  
C163     C      0.199830000000     0.672870000000     0.648350000000     0.0279974  
C164     C      0.205650000000     0.665260000000     0.612710000000    -0.076418   
C165     C      0.210780000000     0.692240000000     0.588510000000     0.0459153  
C166     C      0.210080000000     0.727420000000     0.599410000000    -0.152725   
C167     C      0.202040000000     0.735040000000     0.634570000000     0.0477771  
C168     C      0.197040000000     0.708080000000     0.658770000000    -0.0766133  
C169     C      0.236880000000     0.059330000000     0.491680000000    -0.0775101  
C170     C      0.230170000000     0.039180000000     0.521860000000     0.0293424  
C171     C      0.222470000000     0.056990000000     0.553390000000    -0.0775147  
C172     C      0.221470000000     0.093610000000     0.554630000000     0.0511609  
C173     C      0.227030000000     0.113310000000     0.524190000000    -0.158624   
C174     C      0.234780000000     0.095900000000     0.492740000000     0.0516397  
C175     C      0.230390000000     0.999940000000     0.520340000000     0.0295354  
C176     C      0.221130000000     0.981960000000     0.489340000000    -0.077615   
C177     C      0.220270000000     0.945300000000     0.488340000000     0.0513197  
C178     C      0.227550000000     0.925810000000     0.518560000000    -0.159295   
C179     C      0.237020000000     0.943420000000     0.549400000000     0.0521255  
C180     C      0.238990000000     0.979970000000     0.550150000000    -0.0776951  
C181     C      0.192600000000     0.330580000000     0.658940000000    -0.0781323  
C182     C      0.198200000000     0.365530000000     0.648240000000     0.0300589  
C183     C      0.204240000000     0.372090000000     0.612450000000    -0.0780627  
C184     C      0.207690000000     0.344420000000     0.588740000000     0.0528369  
C185     C      0.203860000000     0.309700000000     0.599960000000    -0.161408   
C186     C      0.195010000000     0.302970000000     0.634900000000     0.0528496  
C187     C      0.200970000000     0.394410000000     0.674600000000     0.0290328  
C188     C      0.182200000000     0.393080000000     0.706340000000    -0.0770591  
C189     C      0.188390000000     0.417720000000     0.732760000000     0.0506467  
C190     C      0.212750000000     0.444810000000     0.727720000000    -0.156148   
C191     C      0.230020000000     0.447530000000     0.695430000000     0.0501599  
C192     C      0.224550000000     0.422400000000     0.669350000000    -0.0770757  
C193     C      0.810080000000     0.055850000000     0.490910000000    -0.0772418  
C194     C      0.820560000000     0.037620000000     0.521170000000     0.029183   
C195     C      0.831770000000     0.056800000000     0.550520000000    -0.078264   
C196     C      0.832960000000     0.093330000000     0.549510000000     0.0500975  
C197     C      0.822900000000     0.111610000000     0.519160000000    -0.156103   
C198     C      0.811140000000     0.092490000000     0.489940000000     0.0480812  
C199     C      0.821010000000     0.998730000000     0.521840000000     0.0288319  
C200     C      0.809500000000     0.980260000000     0.551560000000    -0.076763   
C201     C      0.811240000000     0.943650000000     0.552550000000     0.0474495  
C202     C      0.824720000000     0.924800000000     0.523900000000    -0.154615   
C203     C      0.835930000000     0.943300000000     0.494100000000     0.049718   
C204     C      0.834060000000     0.979810000000     0.493080000000    -0.0776677  
C205     C      0.982950000000     0.230730000000     0.492770000000    -0.077738   
C206     C      0.002820000000     0.222100000000     0.522690000000     0.0297228  
C207     C      0.984720000000     0.213450000000     0.553740000000    -0.0778527  
C208     C      0.948050000000     0.213350000000     0.554760000000     0.0517497  
C209     C      0.928630000000     0.220770000000     0.524510000000    -0.159409   
C210     C      0.946330000000     0.229480000000     0.493550000000     0.0522327  
C211     C      0.042060000000     0.221500000000     0.521320000000     0.0293245  
C212     C      0.059900000000     0.213440000000     0.489920000000    -0.0773551  
C213     C      0.096560000000     0.212540000000     0.488780000000     0.0511074  
C214     C      0.116210000000     0.218500000000     0.519220000000    -0.158049   
C215     C      0.098750000000     0.226370000000     0.550590000000     0.0515962  
C216     C      0.062170000000     0.228420000000     0.551530000000    -0.077122   
C217     C      0.819540000000     0.370450000000     0.618300000000    -0.0770187  
C218     C      0.843720000000     0.365490000000     0.645850000000     0.0289604  
C219     C      0.862870000000     0.333940000000     0.646900000000    -0.077141   
C220     C      0.856560000000     0.307440000000     0.622380000000     0.0507134  
C221     C      0.831660000000     0.312180000000     0.595710000000    -0.156088   
C222     C      0.813930000000     0.344260000000     0.593290000000     0.0500873  
C223     C      0.846840000000     0.391960000000     0.674580000000     0.0301318  
C224     C      0.840550000000     0.427720000000     0.667990000000    -0.0784572  
C225     C      0.837550000000     0.451550000000     0.695610000000     0.0531045  
C226     C      0.842040000000     0.440470000000     0.730300000000    -0.16172    
C227     C      0.851130000000     0.405570000000     0.737010000000     0.0528063  
C228     C      0.853130000000     0.381420000000     0.709450000000    -0.078198   
C229     C      0.494900000000     0.057840000000     0.809810000000    -0.0775746  
C230     C      0.525010000000     0.037670000000     0.817020000000     0.029584   
C231     C      0.556430000000     0.055340000000     0.825370000000    -0.0776287  
C232     C      0.557620000000     0.091950000000     0.826550000000     0.05192    
C233     C      0.527210000000     0.111650000000     0.820500000000    -0.15919    
C234     C      0.495880000000     0.094350000000     0.812090000000     0.052365   
C235     C      0.523440000000     0.998530000000     0.816650000000     0.0299739  
C236     C      0.492280000000     0.980740000000     0.825670000000    -0.0780757  
C237     C      0.491120000000     0.944140000000     0.826250000000     0.0525693  
C238     C      0.521320000000     0.924520000000     0.818910000000    -0.160226   
C239     C      0.552360000000     0.941930000000     0.809750000000     0.0527978  
C240     C      0.553280000000     0.978470000000     0.808070000000    -0.0781681  
C241     C      0.434250000000     0.372740000000     0.836640000000    -0.0770751  
C242     C      0.398660000000     0.365490000000     0.843320000000     0.0286538  
C243     C      0.388050000000     0.330390000000     0.846420000000    -0.0772826  
C244     C      0.411990000000     0.303200000000     0.841100000000     0.0490696  
C245     C      0.447100000000     0.310440000000     0.832400000000    -0.154967   
C246     C      0.458210000000     0.345500000000     0.831170000000     0.0474052  
C247     C      0.372010000000     0.393960000000     0.842870000000     0.02934    
C248     C      0.342570000000     0.393300000000     0.865200000000    -0.077237   
C249     C      0.315200000000     0.417500000000     0.860910000000     0.0481904  
C250     C      0.316760000000     0.442520000000     0.834020000000    -0.155992   
C251     C      0.346990000000     0.444250000000     0.813020000000     0.0514042  
C252     C      0.374220000000     0.420320000000     0.817370000000    -0.0782479  
C253     C      0.387830000000     0.190700000000     0.710660000000    -0.0779198  
C254     C      0.397430000000     0.199010000000     0.675930000000     0.0297053  
C255     C      0.432830000000     0.207070000000     0.669030000000    -0.0778217  
C256     C      0.457120000000     0.209610000000     0.696300000000     0.0519294  
C257     C      0.446960000000     0.202840000000     0.730910000000    -0.159889   
C258     C      0.412490000000     0.192200000000     0.737790000000     0.0519791  
C259     C      0.370290000000     0.201980000000     0.647740000000     0.0289672  
C260     C      0.339440000000     0.181680000000     0.648660000000    -0.0770706  
C261     C      0.312520000000     0.187330000000     0.624420000000     0.050457   
C262     C      0.316160000000     0.212680000000     0.598080000000    -0.156487   
C263     C      0.347480000000     0.231790000000     0.595930000000     0.0502412  
C264     C      0.374000000000     0.226860000000     0.620700000000    -0.0770448  
C265     C      0.658800000000     0.330500000000     0.849600000000    -0.0777345  
C266     C      0.649060000000     0.365030000000     0.840570000000     0.0295404  
C267     C      0.613760000000     0.371510000000     0.831720000000    -0.0777229  
C268     C      0.589760000000     0.343990000000     0.829180000000     0.0517244  
C269     C      0.600070000000     0.309560000000     0.836700000000    -0.159185   
C270     C      0.634410000000     0.303130000000     0.848080000000     0.051526   
C271     C      0.675990000000     0.393420000000     0.837710000000     0.0291057  
C272     C      0.706440000000     0.393060000000     0.858630000000    -0.0774413  
C273     C      0.733300000000     0.417390000000     0.853100000000     0.0505812  
C274     C      0.729980000000     0.443260000000     0.827220000000    -0.15717    
C275     C      0.699000000000     0.444930000000     0.807510000000     0.050445   
C276     C      0.672540000000     0.420060000000     0.812350000000    -0.0772485  
C277     C      0.612970000000     0.199730000000     0.667990000000    -0.0768699  
C278     C      0.648790000000     0.194280000000     0.675200000000     0.0283894  
C279     C      0.659770000000     0.192980000000     0.710300000000    -0.0770794  
C280     C      0.635910000000     0.198840000000     0.737440000000     0.048559   
C281     C      0.600520000000     0.206360000000     0.730140000000    -0.154513   
C282     C      0.589100000000     0.205820000000     0.695160000000     0.0470248  
C283     C      0.675220000000     0.194270000000     0.646510000000     0.0294318  
C284     C      0.705540000000     0.173140000000     0.648050000000    -0.0775466  
C285     C      0.732700000000     0.177470000000     0.623650000000     0.0486176  
C286     C      0.730030000000     0.203190000000     0.597530000000    -0.157128   
C287     C      0.698890000000     0.222740000000     0.594830000000     0.0515019  
C288     C      0.671890000000     0.218380000000     0.618970000000    -0.0785762  
C289     C      0.492030000000     0.228360000000     0.061650000000    -0.0774428  
C290     C      0.522350000000     0.221350000000     0.041690000000     0.0296428  
C291     C      0.553770000000     0.213520000000     0.059600000000    -0.0777781  
C292     C      0.554820000000     0.212880000000     0.096190000000     0.0516872  
C293     C      0.524280000000     0.218900000000     0.115700000000    -0.159029   
C294     C      0.492890000000     0.226580000000     0.098180000000     0.0521752  
C295     C      0.521100000000     0.221610000000     0.002540000000     0.0297155  
C296     C      0.490130000000     0.212520000000     0.984420000000    -0.0776894  
C297     C      0.489260000000     0.212060000000     0.947810000000     0.0522123  
C298     C      0.519590000000     0.219560000000     0.928510000000    -0.159459   
C299     C      0.550460000000     0.228700000000     0.946240000000     0.0523748  
C300     C      0.551070000000     0.230300000000     0.982780000000    -0.07749    
C301     C      0.387850000000     0.193770000000     0.336140000000    -0.0776696  
C302     C      0.398190000000     0.199580000000     0.370980000000     0.0286624  
C303     C      0.433420000000     0.208150000000     0.377920000000    -0.0772754  
C304     C      0.457250000000     0.212820000000     0.350490000000     0.0474974  
C305     C      0.446310000000     0.208980000000     0.315550000000    -0.15581    
C306     C      0.411650000000     0.198360000000     0.308750000000     0.0491432  
C307     C      0.371440000000     0.200740000000     0.399250000000     0.0294131  
C308     C      0.372170000000     0.228170000000     0.423800000000    -0.0784261  
C309     C      0.344700000000     0.232690000000     0.447410000000     0.0514179  
C310     C      0.315710000000     0.209950000000     0.447120000000    -0.156876   
C311     C      0.315680000000     0.181370000000     0.423870000000     0.048453   
C312     C      0.343280000000     0.176890000000     0.400030000000    -0.0776875  
C313     C      0.620020000000     0.223070000000     0.371650000000    -0.0782522  
C314     C      0.645690000000     0.196720000000     0.369860000000     0.0291848  
C315     C      0.645970000000     0.174100000000     0.340630000000    -0.0772982  
C316     C      0.622050000000     0.178830000000     0.313120000000     0.0477967  
C317     C      0.597690000000     0.206440000000     0.314280000000    -0.155757   
C318     C      0.596370000000     0.227840000000     0.344270000000     0.0504719  
C319     C      0.673910000000     0.195560000000     0.396760000000     0.0280769  
C320     C      0.709050000000     0.191210000000     0.386540000000    -0.0769127  
C321     C      0.736180000000     0.195960000000     0.410640000000     0.0478301  
C322     C      0.728870000000     0.205320000000     0.445550000000    -0.15369    
C323     C      0.693710000000     0.207640000000     0.456330000000     0.0461083  
C324     C      0.666520000000     0.202770000000     0.432200000000    -0.0766598  
C325     C      0.551030000000     0.980690000000     0.239000000000    -0.0770528  
C326     C      0.521430000000     0.999160000000     0.227040000000     0.0288526  
C327     C      0.492720000000     0.980220000000     0.213870000000    -0.077558   
C328     C      0.493800000000     0.943670000000     0.212130000000     0.0494371  
C329     C      0.523580000000     0.925190000000     0.223610000000    -0.154741   
C330     C      0.552060000000     0.944080000000     0.237400000000     0.0475536  
C331     C      0.520970000000     0.038080000000     0.227030000000     0.0290287  
C332     C      0.490720000000     0.056710000000     0.237060000000    -0.0771453  
C333     C      0.490040000000     0.093350000000     0.235660000000     0.0478015  
C334     C      0.519530000000     0.112070000000     0.223950000000    -0.155734   
C335     C      0.549870000000     0.093400000000     0.214330000000     0.0496938  
C336     C      0.550590000000     0.056870000000     0.215900000000    -0.078082   
C337     C      0.555310000000     0.809340000000     0.062120000000    -0.0772082  
C338     C      0.525080000000     0.815720000000     0.041840000000     0.0295572  
C339     C      0.493220000000     0.822490000000     0.059450000000    -0.0775819  
C340     C      0.491660000000     0.822710000000     0.096030000000     0.051194   
C341     C      0.522090000000     0.817340000000     0.115890000000    -0.157952   
C342     C      0.553910000000     0.810710000000     0.098680000000     0.0515908  
C343     C      0.526820000000     0.815870000000     0.002670000000     0.0294677  
C344     C      0.557790000000     0.825760000000     0.984980000000    -0.0772621  
C345     C      0.559040000000     0.826550000000     0.948360000000     0.0514573  
C346     C      0.529080000000     0.818610000000     0.928650000000    -0.158334   
C347     C      0.498230000000     0.808680000000     0.945960000000     0.0518309  
C348     C      0.497260000000     0.806730000000     0.982460000000    -0.07714    
C349     C      0.620640000000     0.816850000000     0.374450000000    -0.0777766  
C350     C      0.648560000000     0.840600000000     0.369560000000     0.0293736  
C351     C      0.649780000000     0.859870000000     0.338160000000    -0.0780195  
C352     C      0.625080000000     0.854060000000     0.311710000000     0.0513469  
C353     C      0.598050000000     0.829550000000     0.316380000000    -0.159062   
C354     C      0.595450000000     0.811740000000     0.348350000000     0.0507726  
C355     C      0.677480000000     0.843090000000     0.395910000000     0.0295439  
C356     C      0.670970000000     0.836470000000     0.431610000000    -0.0777094  
C357     C      0.698690000000     0.832910000000     0.455240000000     0.0520138  
C358     C      0.733420000000     0.837210000000     0.444030000000    -0.159594   
C359     C      0.740090000000     0.846550000000     0.409220000000     0.0522706  
C360     C      0.712430000000     0.849080000000     0.385260000000    -0.0777238  
C361     C      0.386860000000     0.845700000000     0.333600000000    -0.0776009  
C362     C      0.397230000000     0.838190000000     0.368290000000     0.0297833  
C363     C      0.432730000000     0.830110000000     0.374620000000    -0.077607   
C364     C      0.456390000000     0.826860000000     0.346900000000     0.0520976  
C365     C      0.445490000000     0.832880000000     0.312380000000    -0.159272   
C366     C      0.410900000000     0.843490000000     0.305980000000     0.0521976  
C367     C      0.370740000000     0.835980000000     0.397110000000     0.0291299  
C368     C      0.340010000000     0.856490000000     0.396410000000    -0.0770238  
C369     C      0.313470000000     0.851320000000     0.421150000000     0.0505569  
C370     C      0.317420000000     0.826270000000     0.447720000000    -0.156114   
C371     C      0.348720000000     0.807100000000     0.449750000000     0.0502744  
C372     C      0.374870000000     0.811540000000     0.424500000000    -0.0771102  
C373     C      0.806810000000     0.548530000000     0.058600000000    -0.0772145  
C374     C      0.818300000000     0.518930000000     0.039790000000     0.0289501  
C375     C      0.831400000000     0.490010000000     0.058360000000    -0.0778024  
C376     C      0.833360000000     0.490780000000     0.094860000000     0.050044   
C377     C      0.822170000000     0.520450000000     0.113710000000    -0.155479   
C378     C      0.808620000000     0.549240000000     0.095200000000     0.0479057  
C379     C      0.817900000000     0.518580000000     0.000890000000     0.0291073  
C380     C      0.807420000000     0.488470000000     0.982310000000    -0.0775094  
C381     C      0.808800000000     0.487700000000     0.945690000000     0.0481898  
C382     C      0.820920000000     0.516940000000     0.926940000000    -0.15648    
C383     C      0.830840000000     0.547200000000     0.945550000000     0.0499331  
C384     C      0.829290000000     0.548030000000     0.982070000000    -0.0782713  
C385     C      0.846010000000     0.380910000000     0.332220000000    -0.0770543  
C386     C      0.842490000000     0.391560000000     0.367290000000     0.0283548  
C387     C      0.835440000000     0.427070000000     0.374510000000    -0.076702   
C388     C      0.830040000000     0.450910000000     0.347270000000     0.0467948  
C389     C      0.831710000000     0.439780000000     0.312210000000    -0.154208   
C390     C      0.840750000000     0.404750000000     0.305010000000     0.0484691  
C391     C      0.842070000000     0.365040000000     0.395780000000     0.02939    
C392     C      0.816260000000     0.367080000000     0.421940000000    -0.0783716  
C393     C      0.812150000000     0.340040000000     0.446010000000     0.0513877  
C394     C      0.833690000000     0.310170000000     0.444630000000    -0.156419   
C395     C      0.860820000000     0.308780000000     0.419770000000     0.0480693  
C396     C      0.864870000000     0.335950000000     0.395420000000    -0.0775503  
C397     C      0.710990000000     0.380580000000     0.190490000000    -0.0776793  
C398     C      0.676000000000     0.391480000000     0.195790000000     0.0297011  
C399     C      0.669470000000     0.427350000000     0.201700000000    -0.077424   
C400     C      0.697200000000     0.450960000000     0.205260000000     0.0519162  
C401     C      0.731930000000     0.439530000000     0.201640000000    -0.159441   
C402     C      0.738670000000     0.404500000000     0.193010000000     0.052466   
C403     C      0.647030000000     0.365260000000     0.198430000000     0.0293194  
C404     C      0.648480000000     0.333390000000     0.179810000000    -0.0775051  
C405     C      0.623770000000     0.307070000000     0.185940000000     0.051159   
C406     C      0.596500000000     0.312340000000     0.210080000000    -0.157469   
C407     C      0.593650000000     0.344760000000     0.227160000000     0.0503711  
C408     C      0.618860000000     0.370740000000     0.221770000000    -0.0774951  
C409     C      0.704250000000     0.643070000000     0.181110000000    -0.0776639  
C410     C      0.673580000000     0.642310000000     0.201690000000     0.029282   
C411     C      0.669210000000     0.614380000000     0.225480000000    -0.0776893  
C412     C      0.695130000000     0.588790000000     0.229360000000     0.0507038  
C413     C      0.726460000000     0.591000000000     0.210300000000    -0.158233   
C414     C      0.730600000000     0.618010000000     0.185760000000     0.0509849  
C415     C      0.647540000000     0.671620000000     0.200410000000     0.0296274  
C416     C      0.658390000000     0.706300000000     0.193550000000    -0.077733   
C417     C      0.634840000000     0.734290000000     0.196620000000     0.0521521  
C418     C      0.600300000000     0.728260000000     0.207500000000    -0.159869   
C419     C      0.588890000000     0.693800000000     0.212950000000     0.0521372  
C420     C      0.612030000000     0.665730000000     0.208800000000    -0.077642   
C421     C      0.832630000000     0.663110000000     0.430560000000    -0.0766471  
C422     C      0.840350000000     0.670190000000     0.395200000000     0.0282775  
C423     C      0.845210000000     0.705180000000     0.384890000000    -0.0770142  
C424     C      0.840760000000     0.732480000000     0.408890000000     0.0484466  
C425     C      0.831210000000     0.725500000000     0.443780000000    -0.154119   
C426     C      0.828060000000     0.690470000000     0.454580000000     0.0466962  
C427     C      0.839630000000     0.641760000000     0.368480000000     0.0292696  
C428     C      0.862910000000     0.641650000000     0.339800000000    -0.0775744  
C429     C      0.858910000000     0.617310000000     0.312530000000     0.0479553  
C430     C      0.831400000000     0.592840000000     0.313380000000    -0.156755   
C431     C      0.809290000000     0.591970000000     0.342830000000     0.0506242  
C432     C      0.813320000000     0.616080000000     0.369970000000    -0.0784047  
C433     C      0.984060000000     0.486520000000     0.216390000000    -0.0779579  
C434     C      0.001850000000     0.517650000000     0.225470000000     0.0298161  
C435     C      0.981720000000     0.547430000000     0.234180000000    -0.0777239  
C436     C      0.945130000000     0.546430000000     0.232660000000     0.0521534  
C437     C      0.927740000000     0.515370000000     0.223570000000    -0.15921    
C438     C      0.947430000000     0.485270000000     0.216000000000     0.0522309  
C439     C      0.041040000000     0.519230000000     0.225140000000     0.0293702  
C440     C      0.061290000000     0.489100000000     0.232080000000    -0.0770817  
C441     C      0.097850000000     0.490200000000     0.230090000000     0.0514921  
C442     C      0.115110000000     0.521650000000     0.222290000000    -0.157739   
C443     C      0.095320000000     0.552010000000     0.216370000000     0.0514385  
C444     C      0.058690000000     0.550720000000     0.217210000000    -0.0774481  
C445     C      0.239110000000     0.549780000000     0.983880000000    -0.0773654  
C446     C      0.228670000000     0.519690000000     0.002390000000     0.0290593  
C447     C      0.217340000000     0.490200000000     0.983480000000    -0.078087   
C448     C      0.215910000000     0.490930000000     0.946950000000     0.0497954  
C449     C      0.225870000000     0.521150000000     0.928400000000    -0.156208   
C450     C      0.237830000000     0.550470000000     0.947250000000     0.0480856  
C451     C      0.228280000000     0.519380000000     0.041310000000     0.0288612  
C452     C      0.239690000000     0.489750000000     0.060030000000    -0.0770918  
C453     C      0.237730000000     0.488990000000     0.096630000000     0.0476595  
C454     C      0.224120000000     0.517760000000     0.115230000000    -0.155357   
C455     C      0.213160000000     0.547520000000     0.096490000000     0.0497229  
C456     C      0.215270000000     0.548340000000     0.059990000000    -0.0777422  
C457     C      0.385580000000     0.330620000000     0.193750000000    -0.0775966  
C458     C      0.395800000000     0.365310000000     0.201680000000     0.0294044  
C459     C      0.431260000000     0.371660000000     0.209870000000    -0.077492   
C460     C      0.455000000000     0.343960000000     0.212890000000     0.05185    
C461     C      0.444220000000     0.309420000000     0.206530000000    -0.159325   
C462     C      0.409700000000     0.303020000000     0.195760000000     0.0516523  
C463     C      0.369200000000     0.394050000000     0.204200000000     0.0293535  
C464     C      0.338540000000     0.393490000000     0.183620000000    -0.077999   
C465     C      0.311920000000     0.418140000000     0.189030000000     0.051282   
C466     C      0.315680000000     0.444500000000     0.214440000000    -0.158815   
C467     C      0.346920000000     0.446410000000     0.233710000000     0.0506305  
C468     C      0.373160000000     0.421240000000     0.229000000000    -0.0776531  
C469     C      0.193600000000     0.382680000000     0.332180000000    -0.0777674  
C470     C      0.198810000000     0.393140000000     0.367290000000     0.0297257  
C471     C      0.204890000000     0.428930000000     0.374170000000    -0.0778982  
C472     C      0.208500000000     0.452860000000     0.346760000000     0.0520796  
C473     C      0.204760000000     0.441900000000     0.311910000000    -0.160329   
C474     C      0.196120000000     0.406930000000     0.304820000000     0.0520572  
C475     C      0.200740000000     0.366610000000     0.396100000000     0.028717   
C476     C      0.182140000000     0.334760000000     0.393990000000    -0.076764   
C477     C      0.187330000000     0.308390000000     0.418880000000     0.0499131  
C478     C      0.210430000000     0.313570000000     0.447030000000    -0.155843   
C479     C      0.227570000000     0.345900000000     0.450390000000     0.0493562  
C480     C      0.223180000000     0.371890000000     0.425020000000    -0.0770096  
C481     C      0.333850000000     0.654130000000     0.194720000000    -0.0773318  
C482     C      0.368500000000     0.643970000000     0.202950000000     0.0293462  
C483     C      0.374670000000     0.608760000000     0.212180000000    -0.0769889  
C484     C      0.346830000000     0.585260000000     0.215720000000     0.0511278  
C485     C      0.312380000000     0.595980000000     0.208770000000    -0.157682   
C486     C      0.306160000000     0.630220000000     0.197170000000     0.0516332  
C487     C      0.397390000000     0.670460000000     0.204590000000     0.029489   
C488     C      0.396700000000     0.700710000000     0.183470000000    -0.0775733  
C489     C      0.421460000000     0.727340000000     0.188130000000     0.0513004  
C490     C      0.448120000000     0.723900000000     0.213230000000    -0.158605   
C491     C      0.450180000000     0.693040000000     0.232980000000     0.051024   
C492     C      0.424870000000     0.666870000000     0.229080000000    -0.0777471  
C493     C      0.176750000000     0.702110000000     0.396750000000    -0.0779115  
C494     C      0.197830000000     0.671760000000     0.398050000000     0.029527   
C495     C      0.222380000000     0.668460000000     0.425260000000    -0.0787869  
C496     C      0.227160000000     0.695480000000     0.449340000000     0.0516604  
C497     C      0.207590000000     0.726610000000     0.446920000000    -0.158076   
C498     C      0.181490000000     0.729280000000     0.421100000000     0.0486986  
C499     C      0.197260000000     0.645210000000     0.369440000000     0.0282157  
C500     C      0.202530000000     0.609420000000     0.376710000000    -0.0769146  
C501     C      0.208100000000     0.585390000000     0.349550000000     0.0467617  
C502     C      0.208340000000     0.596610000000     0.314530000000    -0.154595   
C503     C      0.200950000000     0.631970000000     0.307190000000     0.0483776  
C504     C      0.195570000000     0.655990000000     0.334310000000    -0.0770088  
Fe1      Fe     0.214360000000     0.557550000000     0.214280000000     1.34085    
Fe2      Fe     0.214350000000     0.481600000000     0.214470000000     1.34204    
Fe3      Fe     0.259140000000     0.520000000000     0.262460000000     1.3473     
Fe4      Fe     0.828300000000     0.555120000000     0.214210000000     1.34007    
Fe5      Fe     0.829150000000     0.479110000000     0.212050000000     1.34205    
Fe6      Fe     0.781380000000     0.515380000000     0.258440000000     1.34989    
Fe7      Fe     0.561020000000     0.826230000000     0.215330000000     1.34216    
Fe8      Fe     0.485010000000     0.825360000000     0.214600000000     1.33995    
Fe9      Fe     0.523220000000     0.779450000000     0.261490000000     1.35093    
Fe10     Fe     0.483530000000     0.211630000000     0.214460000000     1.34159    
Fe11     Fe     0.559690000000     0.211250000000     0.215250000000     1.34045    
Fe12     Fe     0.521370000000     0.258580000000     0.260390000000     1.35017    
Fe13     Fe     0.561810000000     0.211520000000     0.830500000000     1.34261    
Fe14     Fe     0.485570000000     0.209810000000     0.828620000000     1.34373    
Fe15     Fe     0.523790000000     0.256630000000     0.783040000000     1.34633    
Fe16     Fe     0.828970000000     0.210880000000     0.559390000000     1.3412     
Fe17     Fe     0.829960000000     0.211550000000     0.483290000000     1.33912    
Fe18     Fe     0.782000000000     0.256320000000     0.521070000000     1.34963    
Fe19     Fe     0.214920000000     0.212280000000     0.560380000000     1.34157    
Fe20     Fe     0.216430000000     0.212280000000     0.484270000000     1.33955    
Fe21     Fe     0.259770000000     0.260820000000     0.523070000000     1.34993    
Fe22     Fe     0.217850000000     0.481110000000     0.829040000000     1.34053    
Fe23     Fe     0.217320000000     0.557260000000     0.828760000000     1.33922    
Fe24     Fe     0.263530000000     0.519190000000     0.782260000000     1.35133    
Fe25     Fe     0.215930000000     0.825660000000     0.484570000000     1.34105    
Fe26     Fe     0.217750000000     0.827930000000     0.560810000000     1.33952    
Fe27     Fe     0.261270000000     0.778810000000     0.523160000000     1.34926    
Fe28     Fe     0.831060000000     0.826100000000     0.482910000000     1.34113    
Fe29     Fe     0.831050000000     0.824520000000     0.558850000000     1.33965    
Fe30     Fe     0.783000000000     0.780750000000     0.520050000000     1.34713    
Fe31     Fe     0.486390000000     0.825240000000     0.831050000000     1.34383    
Fe32     Fe     0.562630000000     0.826120000000     0.828030000000     1.34033    
Fe33     Fe     0.523430000000     0.777840000000     0.784910000000     1.34761    
Fe34     Fe     0.830640000000     0.556270000000     0.827780000000     1.33939    
Fe35     Fe     0.831430000000     0.480260000000     0.827850000000     1.34106    
Fe36     Fe     0.787010000000     0.518070000000     0.779200000000     1.34954    
H1       H      0.604810000000     0.635910000000     0.832240000000     0.0487556  
H2       H      0.562610000000     0.683440000000     0.824580000000     0.0275066  
H3       H      0.644420000000     0.758950000000     0.845700000000     0.0280229  
H4       H      0.686560000000     0.711620000000     0.852600000000     0.0489818  
H5       H      0.653130000000     0.616630000000     0.795560000000     0.0491613  
H6       H      0.700530000000     0.575040000000     0.787430000000     0.0272825  
H7       H      0.754630000000     0.618500000000     0.876960000000     0.0266803  
H8       H      0.706420000000     0.660180000000     0.885530000000     0.0488666  
H9       H      0.888500000000     0.700660000000     0.662810000000     0.0486897  
H10      H      0.880060000000     0.748710000000     0.621130000000     0.0256081  
H11      H      0.791280000000     0.694040000000     0.576770000000     0.0267038  
H12      H      0.799260000000     0.646810000000     0.618370000000     0.0489785  
H13      H      0.855400000000     0.680550000000     0.713910000000     0.0488477  
H14      H      0.848460000000     0.638430000000     0.761090000000     0.0278787  
H15      H      0.828150000000     0.556590000000     0.685360000000     0.0274739  
H16      H      0.835870000000     0.598770000000     0.637970000000     0.0484761  
H17      H      0.716790000000     0.849930000000     0.682720000000     0.0487354  
H18      H      0.763970000000     0.842870000000     0.640480000000     0.0275885  
H19      H      0.688170000000     0.819920000000     0.559450000000     0.0272052  
H20      H      0.640750000000     0.827800000000     0.601750000000     0.048337   
H21      H      0.665460000000     0.882630000000     0.702730000000     0.048476   
H22      H      0.623920000000     0.874780000000     0.751100000000     0.0254184  
H23      H      0.579890000000     0.784960000000     0.697930000000     0.0266588  
H24      H      0.621360000000     0.792330000000     0.650410000000     0.0489027  
H25      H      0.046200000000     0.831270000000     0.577720000000     0.0486463  
H26      H      0.109980000000     0.833450000000     0.580150000000     0.022507   
H27      H      0.115450000000     0.803900000000     0.471230000000     0.0271977  
H28      H      0.051950000000     0.798630000000     0.469120000000     0.0490071  
H29      H      0.000580000000     0.828350000000     0.466330000000     0.0484505  
H30      H      0.936800000000     0.827690000000     0.463990000000     0.0218037  
H31      H      0.932710000000     0.801220000000     0.573650000000     0.0258811  
H32      H      0.996440000000     0.798780000000     0.575760000000     0.0489413  
H33      H      0.394950000000     0.793400000000     0.620320000000     0.0492443  
H34      H      0.347870000000     0.787220000000     0.578230000000     0.0267397  
H35      H      0.293760000000     0.875240000000     0.624790000000     0.0248006  
H36      H      0.341810000000     0.882000000000     0.667020000000     0.0486865  
H37      H      0.443240000000     0.827820000000     0.641610000000     0.0488793  
H38      H      0.484930000000     0.818140000000     0.689150000000     0.0294992  
H39      H      0.402990000000     0.838990000000     0.764630000000     0.0279326  
H40      H      0.361280000000     0.847720000000     0.717270000000     0.0487885  
H41      H      0.997390000000     0.464740000000     0.804780000000     0.049087   
H42      H      0.933700000000     0.466110000000     0.808050000000     0.0282444  
H43      H      0.936780000000     0.576010000000     0.834220000000     0.022285   
H44      H      0.000570000000     0.574410000000     0.834200000000     0.0483601  
H45      H      0.051220000000     0.572510000000     0.803520000000     0.0490711  
H46      H      0.114930000000     0.571260000000     0.806670000000     0.0264012  
H47      H      0.111980000000     0.462020000000     0.835100000000     0.0213462  
H48      H      0.048190000000     0.463570000000     0.835200000000     0.0485132  
H49      H      0.400460000000     0.614000000000     0.803590000000     0.0484507  
H50      H      0.354910000000     0.570470000000     0.794980000000     0.0231506  
H51      H      0.290280000000     0.622360000000     0.871990000000     0.0255277  
H52      H      0.336840000000     0.664740000000     0.882830000000     0.048308   
H53      H      0.361540000000     0.713470000000     0.858210000000     0.0486079  
H54      H      0.403770000000     0.761170000000     0.854280000000     0.0188691  
H55      H      0.485440000000     0.687320000000     0.828710000000     0.0239836  
H56      H      0.444290000000     0.638990000000     0.835430000000     0.0488047  
H57      H      0.244080000000     0.617010000000     0.650180000000     0.0491761  
H58      H      0.252260000000     0.575190000000     0.697030000000     0.0265991  
H59      H      0.167860000000     0.623260000000     0.755440000000     0.0250258  
H60      H      0.159070000000     0.665260000000     0.707640000000     0.0487315  
H61      H      0.207340000000     0.638380000000     0.603710000000     0.0486949  
H62      H      0.216410000000     0.685480000000     0.561510000000     0.0291681  
H63      H      0.201000000000     0.761870000000     0.643830000000     0.0283735  
H64      H      0.192920000000     0.714930000000     0.686000000000     0.0488352  
H65      H      0.216290000000     0.042800000000     0.577100000000     0.0484153  
H66      H      0.215120000000     0.106480000000     0.579140000000     0.0218867  
H67      H      0.239560000000     0.110620000000     0.468980000000     0.0258647  
H68      H      0.243870000000     0.047030000000     0.467100000000     0.0487153  
H69      H      0.213590000000     0.996020000000     0.465940000000     0.0484323  
H70      H      0.212620000000     0.932250000000     0.464300000000     0.0215473  
H71      H      0.243170000000     0.928840000000     0.572950000000     0.0263892  
H72      H      0.247300000000     0.992400000000     0.574250000000     0.0489     
H73      H      0.207540000000     0.398540000000     0.602810000000     0.0491255  
H74      H      0.214420000000     0.350090000000     0.561750000000     0.0256733  
H75      H      0.192440000000     0.276250000000     0.644120000000     0.0193924  
H76      H      0.188370000000     0.324150000000     0.686200000000     0.0488965  
H77      H      0.163150000000     0.372630000000     0.711170000000     0.0485793  
H78      H      0.174410000000     0.415330000000     0.757350000000     0.0265434  
H79      H      0.249140000000     0.468030000000     0.690980000000     0.023217   
H80      H      0.240140000000     0.424220000000     0.645750000000     0.0484832  
H81      H      0.840400000000     0.043550000000     0.574060000000     0.049132   
H82      H      0.842040000000     0.107230000000     0.572560000000     0.0272759  
H83      H      0.803010000000     0.105780000000     0.466250000000     0.0288573  
H84      H      0.800960000000     0.041780000000     0.468000000000     0.0496652  
H85      H      0.798970000000     0.994120000000     0.574010000000     0.0493513  
H86      H      0.802170000000     0.930170000000     0.575790000000     0.0292229  
H87      H      0.846350000000     0.929610000000     0.471500000000     0.0278041  
H88      H      0.843540000000     0.993260000000     0.469990000000     0.0492152  
H89      H      0.998690000000     0.205860000000     0.577200000000     0.0484897  
H90      H      0.934890000000     0.206210000000     0.578870000000     0.0210976  
H91      H      0.931790000000     0.235680000000     0.469960000000     0.026136   
H92      H      0.995500000000     0.238560000000     0.468620000000     0.0490397  
H93      H      0.045710000000     0.207090000000     0.466210000000     0.048439   
H94      H      0.109510000000     0.206160000000     0.464320000000     0.0221526  
H95      H      0.113460000000     0.231530000000     0.574330000000     0.0282958  
H96      H      0.049850000000     0.235690000000     0.576010000000     0.0491901  
H97      H      0.882340000000     0.329340000000     0.667000000000     0.0486604  
H98      H      0.870920000000     0.283020000000     0.624530000000     0.0268676  
H99      H      0.794410000000     0.348480000000     0.573100000000     0.0234715  
H100     H      0.803680000000     0.393910000000     0.616740000000     0.0484951  
H101     H      0.836710000000     0.437240000000     0.641580000000     0.0489501  
H102     H      0.830640000000     0.478510000000     0.689950000000     0.0243349  
H103     H      0.854220000000     0.396440000000     0.763690000000     0.0196484  
H104     H      0.857600000000     0.354180000000     0.715890000000     0.0488958  
H105     H      0.580060000000     0.041050000000     0.831880000000     0.0486512  
H106     H      0.582030000000     0.104800000000     0.833350000000     0.0223432  
H107     H      0.472170000000     0.109120000000     0.806870000000     0.0277374  
H108     H      0.470440000000     0.045590000000     0.802300000000     0.0493553  
H109     H      0.468890000000     0.994930000000     0.833220000000     0.0488452  
H110     H      0.466960000000     0.931200000000     0.833710000000     0.0219231  
H111     H      0.575900000000     0.927220000000     0.803590000000     0.0258224  
H112     H      0.577490000000     0.990830000000     0.800010000000     0.0490998  
H113     H      0.360830000000     0.323800000000     0.851140000000     0.0489868  
H114     H      0.402590000000     0.276460000000     0.842540000000     0.0278865  
H115     H      0.485190000000     0.351960000000     0.825040000000     0.0279967  
H116     H      0.443410000000     0.399530000000     0.834660000000     0.0487629  
H117     H      0.340290000000     0.373530000000     0.885390000000     0.0488276  
H118     H      0.292310000000     0.415680000000     0.877600000000     0.0259608  
H119     H      0.349200000000     0.463490000000     0.792300000000     0.0266821  
H120     H      0.396180000000     0.421450000000     0.799420000000     0.0492365  
H121     H      0.441740000000     0.212470000000     0.642670000000     0.0486797  
H122     H      0.483720000000     0.217740000000     0.690470000000     0.0238741  
H123     H      0.404020000000     0.187350000000     0.764430000000     0.0192399  
H124     H      0.360910000000     0.184850000000     0.717420000000     0.0485021  
H125     H      0.335750000000     0.161650000000     0.668350000000     0.0484456  
H126     H      0.288720000000     0.171950000000     0.626380000000     0.0265488  
H127     H      0.350850000000     0.251730000000     0.576040000000     0.0235529  
H128     H      0.396790000000     0.243680000000     0.619260000000     0.0485036  
H129     H      0.604720000000     0.397710000000     0.825730000000     0.0486602  
H130     H      0.563250000000     0.349480000000     0.820490000000     0.0241643  
H131     H      0.643010000000     0.276620000000     0.853530000000     0.0194458  
H132     H      0.685660000000     0.324050000000     0.856070000000     0.0484303  
H133     H      0.709890000000     0.373730000000     0.879040000000     0.0483645  
H134     H      0.756830000000     0.415820000000     0.868950000000     0.0256432  
H135     H      0.695890000000     0.464450000000     0.787170000000     0.0232987  
H136     H      0.650070000000     0.421070000000     0.795080000000     0.0485639  
H137     H      0.687150000000     0.189270000000     0.716870000000     0.0488923  
H138     H      0.645570000000     0.198790000000     0.764120000000     0.0279746  
H139     H      0.561920000000     0.210970000000     0.688690000000     0.0282375  
H140     H      0.603520000000     0.200290000000     0.641240000000     0.0485196  
H141     H      0.708700000000     0.153980000000     0.668710000000     0.0486895  
H142     H      0.756320000000     0.161890000000     0.626230000000     0.0252716  
H143     H      0.695830000000     0.242510000000     0.574720000000     0.025966   
H144     H      0.649230000000     0.235400000000     0.617080000000     0.0490819  
H145     H      0.577560000000     0.207110000000     0.045520000000     0.0485032  
H146     H      0.579290000000     0.206600000000     0.109200000000     0.0215972  
H147     H      0.469060000000     0.231720000000     0.112800000000     0.0276614  
H148     H      0.467530000000     0.235440000000     0.049230000000     0.0493575  
H149     H      0.466640000000     0.204890000000     0.998350000000     0.0487389  
H150     H      0.465220000000     0.204630000000     0.934610000000     0.0218436  
H151     H      0.574090000000     0.234980000000     0.931780000000     0.0274528  
H152     H      0.575160000000     0.238460000000     0.995360000000     0.0492642  
H153     H      0.442330000000     0.212270000000     0.404550000000     0.0488897  
H154     H      0.483900000000     0.220530000000     0.356630000000     0.0286958  
H155     H      0.402420000000     0.194850000000     0.282140000000     0.027347   
H156     H      0.360890000000     0.187490000000     0.329810000000     0.0489586  
H157     H      0.393160000000     0.247280000000     0.423720000000     0.0493099  
H158     H      0.345730000000     0.254790000000     0.465240000000     0.026949   
H159     H      0.293820000000     0.163270000000     0.423220000000     0.0258717  
H160     H      0.342170000000     0.155250000000     0.381660000000     0.0487096  
H161     H      0.665190000000     0.153280000000     0.338650000000     0.048646   
H162     H      0.623550000000     0.161790000000     0.290440000000     0.0262339  
H163     H      0.577660000000     0.249140000000     0.346190000000     0.0265202  
H164     H      0.619230000000     0.241260000000     0.393440000000     0.0489721  
H165     H      0.715770000000     0.186000000000     0.359460000000     0.048753   
H166     H      0.762980000000     0.193650000000     0.401490000000     0.0279141  
H167     H      0.687160000000     0.214340000000     0.483130000000     0.0286726  
H168     H      0.639690000000     0.205690000000     0.441070000000     0.0485038  
H169     H      0.469700000000     0.993680000000     0.204100000000     0.0492091  
H170     H      0.471330000000     0.929920000000     0.201490000000     0.0277546  
H171     H      0.575300000000     0.930650000000     0.246700000000     0.0284404  
H172     H      0.573410000000     0.994550000000     0.249660000000     0.0492041  
H173     H      0.467600000000     0.042950000000     0.246100000000     0.0495737  
H174     H      0.466330000000     0.106950000000     0.243420000000     0.0286911  
H175     H      0.573100000000     0.106980000000     0.205300000000     0.0271582  
H176     H      0.574140000000     0.043300000000     0.207610000000     0.0490477  
H177     H      0.469460000000     0.828430000000     0.045160000000     0.0484729  
H178     H      0.466870000000     0.828240000000     0.108790000000     0.0215976  
H179     H      0.577680000000     0.806130000000     0.113560000000     0.0274378  
H180     H      0.580160000000     0.803090000000     0.049950000000     0.0492552  
H181     H      0.580970000000     0.833740000000     0.999250000000     0.0486196  
H182     H      0.583060000000     0.834540000000     0.935480000000     0.0218838  
H183     H      0.474900000000     0.801990000000     0.931180000000     0.0285159  
H184     H      0.473220000000     0.797920000000     0.994650000000     0.0492613  
H185     H      0.670170000000     0.879060000000     0.333610000000     0.048389   
H186     H      0.627370000000     0.868460000000     0.287380000000     0.0249229  
H187     H      0.575000000000     0.792510000000     0.352530000000     0.0227109  
H188     H      0.618910000000     0.800880000000     0.397770000000     0.0485381  
H189     H      0.644520000000     0.832830000000     0.441250000000     0.0485915  
H190     H      0.693070000000     0.825790000000     0.482130000000     0.0244838  
H191     H      0.766800000000     0.849470000000     0.399990000000     0.0194687  
H192     H      0.718840000000     0.853760000000     0.358060000000     0.048595   
H193     H      0.442190000000     0.825290000000     0.400900000000     0.0490088  
H194     H      0.483120000000     0.818830000000     0.352350000000     0.0262885  
H195     H      0.401890000000     0.847810000000     0.279420000000     0.0204711  
H196     H      0.359810000000     0.851510000000     0.327300000000     0.0488024  
H197     H      0.336060000000     0.876220000000     0.376470000000     0.0486997  
H198     H      0.289650000000     0.866730000000     0.419290000000     0.0269137  
H199     H      0.352300000000     0.787390000000     0.469830000000     0.0232333  
H200     H      0.397610000000     0.794620000000     0.425800000000     0.0485018  
H201     H      0.840870000000     0.467000000000     0.044630000000     0.0492116  
H202     H      0.843820000000     0.468070000000     0.108280000000     0.0276623  
H203     H      0.799570000000     0.572410000000     0.108950000000     0.028088   
H204     H      0.796280000000     0.571100000000     0.045020000000     0.0492087  
H205     H      0.798150000000     0.465500000000     0.996110000000     0.0495128  
H206     H      0.800780000000     0.464060000000     0.932130000000     0.0276176  
H207     H      0.840160000000     0.570270000000     0.931930000000     0.0269209  
H208     H      0.837890000000     0.571470000000     0.995600000000     0.0490566  
H209     H      0.833130000000     0.436250000000     0.401270000000     0.0489172  
H210     H      0.823630000000     0.477820000000     0.353710000000     0.0295696  
H211     H      0.842510000000     0.395340000000     0.278280000000     0.0278095  
H212     H      0.851030000000     0.353740000000     0.325680000000     0.0487865  
H213     H      0.797950000000     0.388780000000     0.422820000000     0.0492525  
H214     H      0.791200000000     0.342100000000     0.465100000000     0.0267747  
H215     H      0.877930000000     0.286160000000     0.418210000000     0.0249522  
H216     H      0.885280000000     0.333810000000     0.375790000000     0.0486765  
H217     H      0.643000000000     0.437140000000     0.204790000000     0.0490373  
H218     H      0.691560000000     0.478030000000     0.211870000000     0.0261508  
H219     H      0.765400000000     0.395140000000     0.190630000000     0.0192201  
H220     H      0.717410000000     0.353250000000     0.186400000000     0.0486857  
H221     H      0.669080000000     0.328380000000     0.160940000000     0.0486509  
H222     H      0.626240000000     0.282380000000     0.172100000000     0.0262245  
H223     H      0.572980000000     0.349400000000     0.246100000000     0.0228049  
H224     H      0.616940000000     0.394450000000     0.237240000000     0.048498   
H225     H      0.646510000000     0.612940000000     0.242420000000     0.0484433  
H226     H      0.691440000000     0.568380000000     0.248700000000     0.0220707  
H227     H      0.754460000000     0.620010000000     0.170480000000     0.0249796  
H228     H      0.708350000000     0.663400000000     0.161820000000     0.0484206  
H229     H      0.685460000000     0.712280000000     0.187560000000     0.0487052  
H230     H      0.644220000000     0.760790000000     0.192660000000     0.0201107  
H231     H      0.562160000000     0.688650000000     0.221130000000     0.0266456  
H232     H      0.602170000000     0.639520000000     0.213140000000     0.0489366  
H233     H      0.850760000000     0.711660000000     0.357850000000     0.0488236  
H234     H      0.843640000000     0.759170000000     0.399710000000     0.0278347  
H235     H      0.821180000000     0.684160000000     0.481370000000     0.0291961  
H236     H      0.829280000000     0.636410000000     0.439510000000     0.0486419  
H237     H      0.883740000000     0.660850000000     0.338090000000     0.0487076  
H238     H      0.876500000000     0.618490000000     0.290280000000     0.0256117  
H239     H      0.788000000000     0.573240000000     0.344520000000     0.0266325  
H240     H      0.794640000000     0.615570000000     0.391340000000     0.0490271  
H241     H      0.994070000000     0.571640000000     0.242290000000     0.0490319  
H242     H      0.930350000000     0.569890000000     0.238960000000     0.0258949  
H243     H      0.934500000000     0.461100000000     0.208570000000     0.021665   
H244     H      0.998250000000     0.463190000000     0.208700000000     0.0487346  
H245     H      0.049070000000     0.464560000000     0.239260000000     0.0492599  
H246     H      0.112710000000     0.466520000000     0.235190000000     0.0280265  
H247     H      0.108140000000     0.576520000000     0.210020000000     0.022209   
H248     H      0.044370000000     0.574360000000     0.210870000000     0.0485173  
H249     H      0.208740000000     0.466770000000     0.996950000000     0.0490303  
H250     H      0.206690000000     0.467820000000     0.933270000000     0.0272013  
H251     H      0.245900000000     0.574080000000     0.933760000000     0.0278305  
H252     H      0.248320000000     0.572800000000     0.997730000000     0.0493998  
H253     H      0.250200000000     0.467160000000     0.046380000000     0.0492092  
H254     H      0.246600000000     0.465750000000     0.110280000000     0.0280413  
H255     H      0.202660000000     0.570210000000     0.109990000000     0.0275372  
H256     H      0.205890000000     0.571380000000     0.046350000000     0.0491472  
H257     H      0.440620000000     0.397940000000     0.215010000000     0.0488341  
H258     H      0.481670000000     0.349410000000     0.221090000000     0.0259598  
H259     H      0.400770000000     0.276450000000     0.191190000000     0.0195459  
H260     H      0.358560000000     0.324310000000     0.187810000000     0.0484573  
H261     H      0.334730000000     0.373710000000     0.163640000000     0.0484551  
H262     H      0.288180000000     0.416380000000     0.173510000000     0.0253183  
H263     H      0.350370000000     0.466320000000     0.253680000000     0.0228813  
H264     H      0.395860000000     0.422440000000     0.245970000000     0.0485584  
H265     H      0.207870000000     0.438500000000     0.400700000000     0.0485626  
H266     H      0.215030000000     0.479850000000     0.352740000000     0.0242623  
H267     H      0.193600000000     0.397870000000     0.278020000000     0.0198342  
H268     H      0.189400000000     0.355460000000     0.325410000000     0.048687   
H269     H      0.163910000000     0.329830000000     0.372820000000     0.0483541  
H270     H      0.173510000000     0.283760000000     0.415910000000     0.0262161  
H271     H      0.245800000000     0.350480000000     0.471690000000     0.0226122  
H272     H      0.238670000000     0.395500000000     0.427540000000     0.0481472  
H273     H      0.400900000000     0.599370000000     0.217590000000     0.0487551  
H274     H      0.352140000000     0.558790000000     0.224520000000     0.0263538  
H275     H      0.279630000000     0.639100000000     0.192100000000     0.0200728  
H276     H      0.327600000000     0.680960000000     0.188070000000     0.0484874  
H277     H      0.376730000000     0.704230000000     0.163640000000     0.048677   
H278     H      0.419560000000     0.750810000000     0.172320000000     0.02577    
H279     H      0.470320000000     0.689890000000     0.252760000000     0.0221589  
H280     H      0.426220000000     0.644560000000     0.246480000000     0.0485202  
H281     H      0.239370000000     0.645770000000     0.426950000000     0.049097   
H282     H      0.247240000000     0.692420000000     0.469200000000     0.0258306  
H283     H      0.165880000000     0.752890000000     0.418740000000     0.024245   
H284     H      0.157280000000     0.705260000000     0.376340000000     0.0485932  
H285     H      0.203390000000     0.600130000000     0.403480000000     0.0484374  
H286     H      0.213190000000     0.558240000000     0.356070000000     0.0280068  
H287     H      0.200670000000     0.641480000000     0.280470000000     0.0278424  
H288     H      0.191950000000     0.683340000000     0.327700000000     0.0488379  
O1       O      0.281540000000     0.560040000000     0.248160000000    -0.489992   
O2       O      0.195920000000     0.468630000000     0.256440000000    -0.492598   
O3       O      0.257320000000     0.569280000000     0.197390000000    -0.490018   
O4       O      0.219130000000     0.583290000000     0.254690000000    -0.490242   
O5       O      0.291530000000     0.497990000000     0.235370000000    -0.494012   
O6       O      0.169670000000     0.497310000000     0.205360000000    -0.48807    
O7       O      0.229320000000     0.519580000000     0.230450000000    -0.863129   
O8       O      0.231710000000     0.491140000000     0.171190000000    -0.491423   
O9       O      0.205680000000     0.541610000000     0.169720000000    -0.491359   
O10      O      0.229060000000     0.541990000000     0.292280000000    -0.490632   
O11      O      0.170430000000     0.548800000000     0.230030000000    -0.492559   
O12      O      0.255160000000     0.456800000000     0.220180000000    -0.492617   
O13      O      0.244390000000     0.479970000000     0.284260000000    -0.495301   
O14      O      0.793850000000     0.555600000000     0.281290000000    -0.496596   
O15      O      0.787130000000     0.466940000000     0.193080000000    -0.490905   
O16      O      0.844330000000     0.566900000000     0.257690000000    -0.488915   
O17      O      0.786780000000     0.579220000000     0.218390000000    -0.4892     
O18      O      0.810230000000     0.493790000000     0.289580000000    -0.490691   
O19      O      0.839290000000     0.495960000000     0.168230000000    -0.491641   
O20      O      0.812950000000     0.516600000000     0.228190000000    -0.864246   
O21      O      0.872310000000     0.488130000000     0.229720000000    -0.493284   
O22      O      0.873520000000     0.540260000000     0.206710000000    -0.489968   
O23      O      0.750260000000     0.536970000000     0.229710000000    -0.493862   
O24      O      0.813340000000     0.546570000000     0.169810000000    -0.491173   
O25      O      0.823130000000     0.453030000000     0.252030000000    -0.488912   
O26      O      0.760650000000     0.474980000000     0.242870000000    -0.493243   
O27      O      0.563730000000     0.757840000000     0.247320000000    -0.493911   
O28      O      0.471950000000     0.842960000000     0.256940000000    -0.490895   
O29      O      0.574170000000     0.783910000000     0.197780000000    -0.492337   
O30      O      0.585970000000     0.821500000000     0.256140000000    -0.492285   
O31      O      0.501940000000     0.747950000000     0.232940000000    -0.495132   
O32      O      0.500360000000     0.870150000000     0.205760000000    -0.488931   
O33      O      0.523070000000     0.810260000000     0.230470000000    -0.863022   
O34      O      0.494820000000     0.808950000000     0.171080000000    -0.492212   
O35      O      0.545650000000     0.834740000000     0.170540000000    -0.489435   
O36      O      0.544500000000     0.808310000000     0.292770000000    -0.49497    
O37      O      0.550930000000     0.869700000000     0.231870000000    -0.491972   
O38      O      0.460260000000     0.784380000000     0.219550000000    -0.490283   
O39      O      0.482750000000     0.793520000000     0.283120000000    -0.49479    
O40      O      0.480830000000     0.279990000000     0.246230000000    -0.494468   
O41      O      0.571510000000     0.194550000000     0.258440000000    -0.487639   
O42      O      0.471090000000     0.254010000000     0.196500000000    -0.490868   
O43      O      0.458540000000     0.217200000000     0.255190000000    -0.490704   
O44      O      0.542710000000     0.289350000000     0.231190000000    -0.49317    
O45      O      0.544080000000     0.166560000000     0.206860000000    -0.491967   
O46      O      0.521510000000     0.227190000000     0.229890000000    -0.864291   
O47      O      0.551060000000     0.226620000000     0.171190000000    -0.493257   
O48      O      0.499370000000     0.202470000000     0.169960000000    -0.490498   
O49      O      0.500080000000     0.230020000000     0.291920000000    -0.491914   
O50      O      0.492680000000     0.168050000000     0.231300000000    -0.491186   
O51      O      0.584500000000     0.252300000000     0.219620000000    -0.488156   
O52      O      0.561930000000     0.245320000000     0.282200000000    -0.495682   
O53      O      0.563720000000     0.279100000000     0.797410000000    -0.493167   
O54      O      0.474260000000     0.192110000000     0.785820000000    -0.492126   
O55      O      0.573060000000     0.254530000000     0.847820000000    -0.491247   
O56      O      0.587360000000     0.216670000000     0.790060000000    -0.489893   
O57      O      0.501450000000     0.287710000000     0.811500000000    -0.490973   
O58      O      0.501790000000     0.165490000000     0.837590000000    -0.492603   
O59      O      0.523710000000     0.225940000000     0.814120000000    -0.863606   
O60      O      0.493440000000     0.226150000000     0.872560000000    -0.493411   
O61      O      0.545510000000     0.202900000000     0.874830000000    -0.492562   
O62      O      0.546130000000     0.227660000000     0.752420000000    -0.490321   
O63      O      0.553920000000     0.167450000000     0.814470000000    -0.492987   
O64      O      0.460170000000     0.250320000000     0.823090000000    -0.490397   
O65      O      0.483870000000     0.242160000000     0.760630000000    -0.493653   
O66      O      0.760800000000     0.242650000000     0.561620000000    -0.498237   
O67      O      0.846330000000     0.254870000000     0.471440000000    -0.487921   
O68      O      0.786250000000     0.192800000000     0.571300000000    -0.487689   
O69      O      0.823350000000     0.251890000000     0.584010000000    -0.48794    
O70      O      0.751610000000     0.226310000000     0.499830000000    -0.489551   
O71      O      0.874750000000     0.203870000000     0.499050000000    -0.491835   
O72      O      0.813800000000     0.226230000000     0.521290000000    -0.864285   
O73      O      0.814750000000     0.167280000000     0.492040000000    -0.490486   
O74      O      0.838660000000     0.166500000000     0.543690000000    -0.492919   
O75      O      0.810040000000     0.288400000000     0.542330000000    -0.490843   
O76      O      0.872700000000     0.227580000000     0.550880000000    -0.492895   
O77      O      0.788970000000     0.215550000000     0.458260000000    -0.487709   
O78      O      0.795130000000     0.277930000000     0.480460000000    -0.495613   
O79      O      0.244660000000     0.281730000000     0.563440000000    -0.497134   
O80      O      0.260180000000     0.196730000000     0.472970000000    -0.489956   
O81      O      0.195800000000     0.254130000000     0.573010000000    -0.4931     
O82      O      0.255540000000     0.218380000000     0.585610000000    -0.488737   
O83      O      0.229740000000     0.290720000000     0.501500000000    -0.492867   
O84      O      0.209230000000     0.167240000000     0.499380000000    -0.49187    
O85      O      0.230290000000     0.228430000000     0.522640000000    -0.862402   
O86      O      0.171790000000     0.226510000000     0.492490000000    -0.492677   
O87      O      0.170690000000     0.202400000000     0.544120000000    -0.490621   
O88      O      0.292160000000     0.233510000000     0.544650000000    -0.492959   
O89      O      0.232680000000     0.169090000000     0.551230000000    -0.493201   
O90      O      0.219910000000     0.253490000000     0.459530000000    -0.486525   
O91      O      0.282430000000     0.248100000000     0.482770000000    -0.495509   
O92      O      0.284810000000     0.478340000000     0.795240000000    -0.496662   
O93      O      0.200020000000     0.569740000000     0.785970000000    -0.488543   
O94      O      0.261010000000     0.469060000000     0.845940000000    -0.487244   
O95      O      0.222280000000     0.456500000000     0.787840000000    -0.487114   
O96      O      0.295170000000     0.539990000000     0.811060000000    -0.492281   
O97      O      0.172510000000     0.541800000000     0.837110000000    -0.490988   
O98      O      0.232780000000     0.519220000000     0.813410000000    -0.864034   
O99      O      0.233420000000     0.548080000000     0.872610000000    -0.491565   
O100     O      0.209250000000     0.496590000000     0.873710000000    -0.493067   
O101     O      0.234180000000     0.498360000000     0.751140000000    -0.491754   
O102     O      0.173800000000     0.489860000000     0.813480000000    -0.493738   
O103     O      0.258580000000     0.581750000000     0.824260000000    -0.487342   
O104     O      0.250290000000     0.560070000000     0.761260000000    -0.497576   
O105     O      0.247350000000     0.757240000000     0.482820000000    -0.499349   
O106     O      0.261570000000     0.843800000000     0.571780000000    -0.487735   
O107     O      0.197650000000     0.782900000000     0.473120000000    -0.489415   
O108     O      0.256950000000     0.819750000000     0.459930000000    -0.486888   
O109     O      0.230870000000     0.749220000000     0.544800000000    -0.489538   
O110     O      0.210290000000     0.872500000000     0.544700000000    -0.493731   
O111     O      0.231560000000     0.810990000000     0.522760000000    -0.863433   
O112     O      0.173090000000     0.813430000000     0.553090000000    -0.492476   
O113     O      0.171570000000     0.835210000000     0.500410000000    -0.493107   
O114     O      0.293600000000     0.806090000000     0.501490000000    -0.491393   
O115     O      0.232720000000     0.869510000000     0.492390000000    -0.492833   
O116     O      0.221470000000     0.787170000000     0.586200000000    -0.486153   
O117     O      0.283410000000     0.792010000000     0.563540000000    -0.495507   
O118     O      0.761780000000     0.796240000000     0.479970000000    -0.494239   
O119     O      0.847190000000     0.781040000000     0.570180000000    -0.489134   
O120     O      0.789100000000     0.845360000000     0.470830000000    -0.490466   
O121     O      0.824440000000     0.785940000000     0.457160000000    -0.489639   
O122     O      0.752780000000     0.810410000000     0.542040000000    -0.490969   
O123     O      0.876000000000     0.832090000000     0.543450000000    -0.490327   
O124     O      0.815060000000     0.810460000000     0.520580000000    -0.864255   
O125     O      0.816010000000     0.868940000000     0.550460000000    -0.48965    
O126     O      0.841480000000     0.870010000000     0.499590000000    -0.490388   
O127     O      0.810830000000     0.748870000000     0.498020000000    -0.489992   
O128     O      0.874260000000     0.808140000000     0.491750000000    -0.491035   
O129     O      0.790050000000     0.820300000000     0.583820000000    -0.488994   
O130     O      0.796180000000     0.757910000000     0.560080000000    -0.493515   
O131     O      0.483310000000     0.756520000000     0.800230000000    -0.495062   
O132     O      0.573130000000     0.842010000000     0.784240000000    -0.48881    
O133     O      0.474810000000     0.783030000000     0.849860000000    -0.492703   
O134     O      0.460490000000     0.819050000000     0.790910000000    -0.488782   
O135     O      0.545560000000     0.747730000000     0.814360000000    -0.491527   
O136     O      0.547080000000     0.870900000000     0.835820000000    -0.493445   
O137     O      0.524120000000     0.809800000000     0.814780000000    -0.8642     
O138     O      0.555360000000     0.811580000000     0.872700000000    -0.491468   
O139     O      0.503320000000     0.835060000000     0.874910000000    -0.492088   
O140     O      0.501270000000     0.805800000000     0.753400000000    -0.49032    
O141     O      0.494550000000     0.868680000000     0.813670000000    -0.493656   
O142     O      0.587520000000     0.785050000000     0.823630000000    -0.487653   
O143     O      0.563450000000     0.790730000000     0.761790000000    -0.49397    
O144     O      0.764540000000     0.558420000000     0.792500000000    -0.492011   
O145     O      0.850300000000     0.467100000000     0.786050000000    -0.492702   
O146     O      0.787110000000     0.567600000000     0.843910000000    -0.4879     
O147     O      0.826430000000     0.581460000000     0.786970000000    -0.487825   
O148     O      0.754320000000     0.496490000000     0.806160000000    -0.492494   
O149     O      0.875940000000     0.496260000000     0.837280000000    -0.48735    
O150     O      0.816400000000     0.518050000000     0.811600000000    -0.863921   
O151     O      0.813720000000     0.489970000000     0.871010000000    -0.49154    
O152     O      0.838830000000     0.540890000000     0.872510000000    -0.493186   
O153     O      0.817460000000     0.539580000000     0.749610000000    -0.491298   
O154     O      0.875000000000     0.547840000000     0.812890000000    -0.491201   
O155     O      0.790620000000     0.455400000000     0.821950000000    -0.490085   
O156     O      0.801820000000     0.477730000000     0.758070000000    -0.498198   


