data_structure

_audit_creation_method RASPA-1.0
_audit_creation_date 2023-6-4
_audit_author_name 'Poobodin Mano'

_cell_length_a    28.6832
_cell_length_b    28.473
_cell_length_c    30.9467
_cell_angle_alpha 90
_cell_angle_beta  90
_cell_angle_gamma 120
_cell_volume      21888

_symmetry_cell_setting          triclinic
_symmetry_space_group_name_Hall 'P 1'
_symmetry_space_group_name_H-M  'P 1'
_symmetry_Int_Tables_number     1

_symmetry_equiv_pos_as_xyz 'x,y,z'

loop_
_atom_site_label
_atom_site_type_symbol
_atom_site_fract_x
_atom_site_fract_y
_atom_site_fract_z
_atom_site_charge
C1       C      0.376070000000     0.541450000000     0.392110000000     0.528768   
C2       C      0.366970000000     0.540230000000     0.276860000000     0.532766   
C3       C      0.235810000000     0.391440000000     0.276330000000     0.532332   
C4       C      0.374170000000     0.398920000000     0.393740000000     0.518907   
C5       C      0.380940000000     0.405130000000     0.275960000000     0.523725   
C6       C      0.232400000000     0.397060000000     0.391030000000     0.52493    
C7       C      0.454990000000     0.335400000000     0.135120000000     0.525355   
C8       C      0.451000000000     0.317590000000     0.019060000000     0.520713   
C9       C      0.450230000000     0.177130000000     0.032010000000     0.520211   
C10      C      0.586600000000     0.320000000000     0.145220000000     0.52823    
C11      C      0.594690000000     0.322430000000     0.028870000000     0.531232   
C12      C      0.444710000000     0.191460000000     0.147550000000     0.522355   
C13      C      0.170860000000     0.408450000000     0.940270000000    -0.00789301 
C14      C      0.665170000000     0.317890000000     0.432460000000    -0.033993   
C15      C      0.164690000000     0.400260000000     0.989010000000    -0.00493252 
C16      C      0.660110000000     0.310140000000     0.481910000000     0.0797546  
C17      C      0.629010000000     0.248980000000     0.492250000000    -0.186959   
C18      C      0.643020000000     0.394400000000     0.195900000000    -0.00700332 
C19      C      0.614870000000     0.298130000000     0.213970000000    -0.0342918  
C20      C      0.199310000000     0.412610000000     0.213460000000    -0.00705794 
C21      C      0.171790000000     0.314580000000     0.229800000000     0.0774355  
C22      C      0.166840000000     0.275220000000     0.266300000000    -0.184539   
C23      C      0.465260000000     0.144330000000     0.204920000000    -0.00547846 
C24      C      0.385720000000     0.157540000000     0.211770000000    -0.0338459  
C25      C      0.431050000000     0.585320000000     0.218590000000    -0.00733148 
C26      C      0.349560000000     0.597610000000     0.224730000000     0.0769251  
C27      C      0.304660000000     0.593220000000     0.254980000000    -0.182224   
C28      C      0.462170000000     0.114790000000     0.483150000000    -0.00790734 
C29      C      0.371790000000     0.607130000000     0.991920000000    -0.0339694  
C30      C      0.453540000000     0.108550000000     0.434260000000    -0.00650531 
C31      C      0.364550000000     0.604980000000     0.942560000000     0.079037   
C32      C      0.303890000000     0.575370000000     0.932000000000    -0.185851   
C33      C      0.446520000000     0.417170000000     0.446540000000    -0.00857845 
C34      C      0.355770000000     0.332930000000     0.952130000000    -0.0350505  
C35      C      0.473030000000     0.384050000000     0.460350000000    -0.00766856 
C36      C      0.382940000000     0.298880000000     0.959600000000     0.0773843  
C37      C      0.342600000000     0.245020000000     0.981680000000    -0.180533   
C38      C      0.472640000000     0.400870000000     0.193850000000    -0.00864416 
C39      C      0.377920000000     0.325270000000     0.177300000000    -0.0335522  
C40      C      0.442780000000     0.427230000000     0.214680000000    -0.00748539 
C41      C      0.367300000000     0.329650000000     0.225710000000     0.078004   
C42      C      0.305860000000     0.300510000000     0.232620000000    -0.183607   
C43      C      0.376070000000     0.541450000000     0.892110000000     0.52857    
C44      C      0.366970000000     0.540230000000     0.776860000000     0.532735   
C45      C      0.235810000000     0.391440000000     0.776330000000     0.532327   
C46      C      0.374170000000     0.398920000000     0.893740000000     0.518786   
C47      C      0.380940000000     0.405130000000     0.775960000000     0.523729   
C48      C      0.232400000000     0.397060000000     0.891030000000     0.524926   
C49      C      0.454990000000     0.335400000000     0.635120000000     0.525351   
C50      C      0.451000000000     0.317590000000     0.519060000000     0.520735   
C51      C      0.450230000000     0.177130000000     0.532010000000     0.520208   
C52      C      0.586600000000     0.320000000000     0.645220000000     0.528236   
C53      C      0.594690000000     0.322430000000     0.528860000000     0.531043   
C54      C      0.444710000000     0.191460000000     0.647550000000     0.522352   
C55      C      0.170860000000     0.408450000000     0.440270000000    -0.0078593  
C56      C      0.665170000000     0.317890000000     0.932460000000    -0.0340007  
C57      C      0.164690000000     0.400260000000     0.489010000000    -0.00504664 
C58      C      0.660110000000     0.310140000000     0.981910000000     0.0797507  
C59      C      0.629010000000     0.248980000000     0.992250000000    -0.186889   
C60      C      0.643020000000     0.394400000000     0.695900000000    -0.00699359 
C61      C      0.614870000000     0.298130000000     0.713970000000    -0.0342901  
C62      C      0.199310000000     0.412610000000     0.713460000000    -0.00708208 
C63      C      0.171790000000     0.314580000000     0.729800000000     0.0774344  
C64      C      0.166840000000     0.275220000000     0.766300000000    -0.184538   
C65      C      0.465260000000     0.144330000000     0.704920000000    -0.00547733 
C66      C      0.385720000000     0.157540000000     0.711770000000    -0.0338426  
C67      C      0.431050000000     0.585320000000     0.718590000000    -0.00733345 
C68      C      0.349560000000     0.597610000000     0.724730000000     0.0769103  
C69      C      0.304660000000     0.593220000000     0.754990000000    -0.182256   
C70      C      0.462170000000     0.114790000000     0.983150000000    -0.00786291 
C71      C      0.371790000000     0.607130000000     0.491920000000    -0.0341036  
C72      C      0.453540000000     0.108550000000     0.934260000000    -0.00652643 
C73      C      0.364550000000     0.604980000000     0.442550000000     0.0790694  
C74      C      0.303890000000     0.575370000000     0.432000000000    -0.185789   
C75      C      0.446520000000     0.417170000000     0.946540000000    -0.00856667 
C76      C      0.355770000000     0.332930000000     0.452130000000    -0.0350528  
C77      C      0.473030000000     0.384050000000     0.960350000000    -0.00769223 
C78      C      0.382940000000     0.298880000000     0.459600000000     0.0773965  
C79      C      0.342600000000     0.245020000000     0.481680000000    -0.180598   
C80      C      0.472640000000     0.400870000000     0.693850000000    -0.00864429 
C81      C      0.377920000000     0.325270000000     0.677300000000    -0.0335534  
C82      C      0.442780000000     0.427230000000     0.714680000000    -0.00748508 
C83      C      0.367300000000     0.329650000000     0.725710000000     0.078005   
C84      C      0.305860000000     0.300510000000     0.732620000000    -0.183608   
C85      C      0.376070000000     0.041450000000     0.392110000000     0.528717   
C86      C      0.366960000000     0.040230000000     0.276860000000     0.532711   
C87      C      0.235810000000     0.891440000000     0.276330000000     0.532308   
C88      C      0.374170000000     0.898920000000     0.393740000000     0.51888    
C89      C      0.380940000000     0.905130000000     0.275960000000     0.523713   
C90      C      0.232400000000     0.897060000000     0.391030000000     0.524924   
C91      C      0.454990000000     0.835400000000     0.135120000000     0.525357   
C92      C      0.451000000000     0.817590000000     0.019060000000     0.520717   
C93      C      0.450230000000     0.677130000000     0.032010000000     0.52021    
C94      C      0.586600000000     0.820000000000     0.145220000000     0.528236   
C95      C      0.594690000000     0.822430000000     0.028870000000     0.531104   
C96      C      0.444710000000     0.691460000000     0.147550000000     0.522352   
C97      C      0.170870000000     0.908450000000     0.940270000000    -0.00783437 
C98      C      0.665160000000     0.817890000000     0.432460000000    -0.0339746  
C99      C      0.164690000000     0.900260000000     0.989010000000    -0.00494174 
C100     C      0.660110000000     0.810140000000     0.481910000000     0.0797202  
C101     C      0.629010000000     0.748980000000     0.492250000000    -0.186938   
C102     C      0.643020000000     0.894390000000     0.195900000000    -0.00689905 
C103     C      0.614870000000     0.798130000000     0.213970000000    -0.0342836  
C104     C      0.199310000000     0.912610000000     0.213460000000    -0.0070946  
C105     C      0.171790000000     0.814580000000     0.229800000000     0.0774315  
C106     C      0.166840000000     0.775220000000     0.266300000000    -0.184534   
C107     C      0.465260000000     0.644330000000     0.204920000000    -0.0055002  
C108     C      0.385720000000     0.657540000000     0.211770000000    -0.0338245  
C109     C      0.431050000000     0.085310000000     0.218590000000    -0.00738398 
C110     C      0.349560000000     0.097610000000     0.224730000000     0.0769426  
C111     C      0.304660000000     0.093220000000     0.254980000000    -0.182303   
C112     C      0.462170000000     0.614790000000     0.483150000000    -0.00791273 
C113     C      0.371790000000     0.107130000000     0.991920000000    -0.0339779  
C114     C      0.453530000000     0.608550000000     0.434260000000    -0.00643529 
C115     C      0.364550000000     0.104980000000     0.942560000000     0.079052   
C116     C      0.303890000000     0.075370000000     0.932000000000    -0.185875   
C117     C      0.446520000000     0.917170000000     0.446540000000    -0.0085579  
C118     C      0.355770000000     0.832930000000     0.952130000000    -0.0350602  
C119     C      0.473030000000     0.884050000000     0.460350000000    -0.00767398 
C120     C      0.382940000000     0.798880000000     0.959600000000     0.0773872  
C121     C      0.342600000000     0.745020000000     0.981680000000    -0.180531   
C122     C      0.472630000000     0.900870000000     0.193850000000    -0.00857627 
C123     C      0.377920000000     0.825270000000     0.177300000000    -0.0335455  
C124     C      0.442780000000     0.927240000000     0.214680000000    -0.00755218 
C125     C      0.367300000000     0.829650000000     0.225710000000     0.0779972  
C126     C      0.305860000000     0.800510000000     0.232620000000    -0.183601   
C127     C      0.376070000000     0.041450000000     0.892110000000     0.528519   
C128     C      0.366960000000     0.040230000000     0.776860000000     0.532679   
C129     C      0.235810000000     0.891440000000     0.776330000000     0.532303   
C130     C      0.374170000000     0.898920000000     0.893740000000     0.518758   
C131     C      0.380940000000     0.905130000000     0.775960000000     0.523717   
C132     C      0.232400000000     0.897060000000     0.891030000000     0.52492    
C133     C      0.454990000000     0.835400000000     0.635120000000     0.525353   
C134     C      0.451000000000     0.817590000000     0.519060000000     0.52074    
C135     C      0.450230000000     0.677130000000     0.532010000000     0.520206   
C136     C      0.586600000000     0.820000000000     0.645220000000     0.528242   
C137     C      0.594690000000     0.822430000000     0.528860000000     0.530915   
C138     C      0.444710000000     0.691460000000     0.647550000000     0.522349   
C139     C      0.170870000000     0.908450000000     0.440270000000    -0.00780069 
C140     C      0.665160000000     0.817890000000     0.932460000000    -0.0339823  
C141     C      0.164690000000     0.900260000000     0.489010000000    -0.00505579 
C142     C      0.660110000000     0.810140000000     0.981910000000     0.0797163  
C143     C      0.629010000000     0.748980000000     0.992250000000    -0.186869   
C144     C      0.643020000000     0.894390000000     0.695900000000    -0.00688933 
C145     C      0.614870000000     0.798130000000     0.713970000000    -0.034282   
C146     C      0.199310000000     0.912610000000     0.713460000000    -0.00711873 
C147     C      0.171790000000     0.814580000000     0.729800000000     0.0774304  
C148     C      0.166840000000     0.775220000000     0.766300000000    -0.184534   
C149     C      0.465260000000     0.644330000000     0.704920000000    -0.00549907 
C150     C      0.385720000000     0.657540000000     0.711770000000    -0.0338212  
C151     C      0.431050000000     0.085310000000     0.718590000000    -0.00738594 
C152     C      0.349560000000     0.097610000000     0.724730000000     0.0769278  
C153     C      0.304660000000     0.093220000000     0.754990000000    -0.182335   
C154     C      0.462170000000     0.614790000000     0.983150000000    -0.00786829 
C155     C      0.371790000000     0.107130000000     0.491920000000    -0.0341121  
C156     C      0.453530000000     0.608550000000     0.934260000000    -0.00645641 
C157     C      0.364550000000     0.104980000000     0.442550000000     0.0790844  
C158     C      0.303890000000     0.075370000000     0.432000000000    -0.185813   
C159     C      0.446520000000     0.917170000000     0.946540000000    -0.00854614 
C160     C      0.355770000000     0.832930000000     0.452130000000    -0.0350625  
C161     C      0.473030000000     0.884050000000     0.960350000000    -0.00769765 
C162     C      0.382940000000     0.798880000000     0.459600000000     0.0773993  
C163     C      0.342600000000     0.745020000000     0.481680000000    -0.180595   
C164     C      0.472630000000     0.900870000000     0.693850000000    -0.00857639 
C165     C      0.377920000000     0.825270000000     0.677300000000    -0.0335468  
C166     C      0.442780000000     0.927240000000     0.714680000000    -0.00755188 
C167     C      0.367300000000     0.829650000000     0.725710000000     0.0779982  
C168     C      0.305860000000     0.800510000000     0.732620000000    -0.183603   
C169     C      0.876070000000     0.541450000000     0.392110000000     0.528947   
C170     C      0.866970000000     0.540230000000     0.276860000000     0.532781   
C171     C      0.735800000000     0.391440000000     0.276330000000     0.532282   
C172     C      0.874170000000     0.398920000000     0.393740000000     0.518755   
C173     C      0.880940000000     0.405130000000     0.275960000000     0.523734   
C174     C      0.732400000000     0.397060000000     0.391030000000     0.524947   
C175     C      0.954990000000     0.335400000000     0.135120000000     0.527219   
C176     C      0.951000000000     0.317590000000     0.019060000000     0.520681   
C177     C      0.950240000000     0.177130000000     0.032010000000     0.522042   
C178     C      0.086600000000     0.320000000000     0.145220000000     0.527982   
C179     C      0.094690000000     0.322430000000     0.028870000000     0.530854   
C180     C      0.944710000000     0.191460000000     0.147550000000     0.522217   
C181     C      0.670860000000     0.408450000000     0.940270000000    -0.00793742 
C182     C      0.165160000000     0.317890000000     0.432460000000    -0.0338917  
C183     C      0.664690000000     0.400260000000     0.989010000000    -0.00489027 
C184     C      0.160120000000     0.310140000000     0.481910000000     0.0795799  
C185     C      0.129010000000     0.248980000000     0.492250000000    -0.186821   
C186     C      0.143020000000     0.394400000000     0.195900000000    -0.00697795 
C187     C      0.114870000000     0.298130000000     0.213970000000    -0.0342101  
C188     C      0.699310000000     0.412610000000     0.213460000000    -0.00702912 
C189     C      0.671790000000     0.314580000000     0.229800000000     0.0775326  
C190     C      0.666850000000     0.275220000000     0.266300000000    -0.184665   
C191     C      0.965260000000     0.144330000000     0.204920000000    -0.0055395  
C192     C      0.885720000000     0.157540000000     0.211770000000    -0.0338753  
C193     C      0.931050000000     0.585320000000     0.218590000000    -0.00727959 
C194     C      0.849560000000     0.597610000000     0.224730000000     0.0769408  
C195     C      0.804660000000     0.593220000000     0.254980000000    -0.182258   
C196     C      0.962170000000     0.114790000000     0.483150000000    -0.0058703  
C197     C      0.871790000000     0.607130000000     0.991920000000    -0.0338402  
C198     C      0.953540000000     0.108550000000     0.434260000000    -0.0071168  
C199     C      0.864550000000     0.604980000000     0.942560000000     0.0789738  
C200     C      0.803890000000     0.575370000000     0.932000000000    -0.185849   
C201     C      0.946520000000     0.417170000000     0.446540000000    -0.00912901 
C202     C      0.855770000000     0.332930000000     0.952130000000    -0.035101   
C203     C      0.973030000000     0.384050000000     0.460350000000    -0.00579888 
C204     C      0.882940000000     0.298880000000     0.959600000000     0.0774184  
C205     C      0.842600000000     0.245020000000     0.981680000000    -0.180529   
C206     C      0.972630000000     0.400870000000     0.193850000000    -0.00660387 
C207     C      0.877920000000     0.325270000000     0.177300000000    -0.0334447  
C208     C      0.942780000000     0.427230000000     0.214680000000    -0.00807306 
C209     C      0.867300000000     0.329650000000     0.225710000000     0.0779428  
C210     C      0.805860000000     0.300510000000     0.232620000000    -0.183604   
C211     C      0.876070000000     0.541450000000     0.892110000000     0.528749   
C212     C      0.866970000000     0.540230000000     0.776860000000     0.532749   
C213     C      0.735800000000     0.391440000000     0.776330000000     0.532277   
C214     C      0.874170000000     0.398920000000     0.893740000000     0.518633   
C215     C      0.880940000000     0.405130000000     0.775960000000     0.523738   
C216     C      0.732400000000     0.397060000000     0.891030000000     0.524944   
C217     C      0.954990000000     0.335400000000     0.635120000000     0.527215   
C218     C      0.951000000000     0.317590000000     0.519060000000     0.520703   
C219     C      0.950240000000     0.177130000000     0.532010000000     0.522039   
C220     C      0.086600000000     0.320000000000     0.645220000000     0.527988   
C221     C      0.094690000000     0.322430000000     0.528860000000     0.530665   
C222     C      0.944710000000     0.191460000000     0.647550000000     0.522213   
C223     C      0.670860000000     0.408450000000     0.440270000000    -0.00790375 
C224     C      0.165160000000     0.317890000000     0.932460000000    -0.0338994  
C225     C      0.664690000000     0.400260000000     0.489010000000    -0.00500425 
C226     C      0.160120000000     0.310140000000     0.981910000000     0.079576   
C227     C      0.129010000000     0.248980000000     0.992250000000    -0.186751   
C228     C      0.143020000000     0.394400000000     0.695900000000    -0.00696822 
C229     C      0.114870000000     0.298130000000     0.713970000000    -0.0342084  
C230     C      0.699310000000     0.412610000000     0.713460000000    -0.00705325 
C231     C      0.671790000000     0.314580000000     0.729800000000     0.0775315  
C232     C      0.666850000000     0.275220000000     0.766300000000    -0.184665   
C233     C      0.965260000000     0.144330000000     0.704920000000    -0.00553837 
C234     C      0.885720000000     0.157540000000     0.711770000000    -0.033872   
C235     C      0.931050000000     0.585320000000     0.718590000000    -0.00728156 
C236     C      0.849560000000     0.597610000000     0.724730000000     0.076926   
C237     C      0.804660000000     0.593220000000     0.754990000000    -0.18229    
C238     C      0.962170000000     0.114790000000     0.983150000000    -0.00582616 
C239     C      0.871790000000     0.607130000000     0.491920000000    -0.0339742  
C240     C      0.953540000000     0.108550000000     0.934260000000    -0.00713785 
C241     C      0.864550000000     0.604980000000     0.442550000000     0.0790062  
C242     C      0.803890000000     0.575370000000     0.432000000000    -0.185787   
C243     C      0.946520000000     0.417170000000     0.946540000000    -0.00911702 
C244     C      0.855770000000     0.332930000000     0.452130000000    -0.0351034  
C245     C      0.973030000000     0.384050000000     0.960350000000    -0.00582259 
C246     C      0.882940000000     0.298880000000     0.459600000000     0.0774305  
C247     C      0.842600000000     0.245020000000     0.481680000000    -0.180593   
C248     C      0.972630000000     0.400870000000     0.693850000000    -0.00660402 
C249     C      0.877920000000     0.325270000000     0.677300000000    -0.033446   
C250     C      0.942780000000     0.427230000000     0.714680000000    -0.00807274 
C251     C      0.867300000000     0.329650000000     0.725710000000     0.0779438  
C252     C      0.805860000000     0.300510000000     0.732620000000    -0.183605   
C253     C      0.876070000000     0.041450000000     0.392110000000     0.528907   
C254     C      0.866960000000     0.040230000000     0.276860000000     0.532712   
C255     C      0.735810000000     0.891440000000     0.276330000000     0.53231    
C256     C      0.874170000000     0.898920000000     0.393740000000     0.518873   
C257     C      0.880940000000     0.905130000000     0.275960000000     0.523834   
C258     C      0.732400000000     0.897060000000     0.391030000000     0.524893   
C259     C      0.954990000000     0.835400000000     0.135120000000     0.527219   
C260     C      0.951000000000     0.817590000000     0.019060000000     0.520667   
C261     C      0.950230000000     0.677130000000     0.032010000000     0.522044   
C262     C      0.086600000000     0.820000000000     0.145220000000     0.527985   
C263     C      0.094690000000     0.822430000000     0.028870000000     0.530852   
C264     C      0.944710000000     0.691460000000     0.147550000000     0.522215   
C265     C      0.670870000000     0.908450000000     0.940270000000    -0.00787477 
C266     C      0.165170000000     0.817890000000     0.432460000000    -0.0338994  
C267     C      0.664690000000     0.900260000000     0.989010000000    -0.00489196 
C268     C      0.160120000000     0.810140000000     0.481910000000     0.0795805  
C269     C      0.129010000000     0.748980000000     0.492250000000    -0.186818   
C270     C      0.143020000000     0.894390000000     0.195900000000    -0.00687457 
C271     C      0.114870000000     0.798130000000     0.213970000000    -0.0342054  
C272     C      0.699310000000     0.912610000000     0.213460000000    -0.00706914 
C273     C      0.671790000000     0.814580000000     0.229800000000     0.0775257  
C274     C      0.666840000000     0.775220000000     0.266300000000    -0.184641   
C275     C      0.965260000000     0.644330000000     0.204920000000    -0.00561156 
C276     C      0.885720000000     0.657540000000     0.211770000000    -0.0338034  
C277     C      0.931050000000     0.085310000000     0.218590000000    -0.00734982 
C278     C      0.849560000000     0.097610000000     0.224730000000     0.0769813  
C279     C      0.804660000000     0.093220000000     0.254980000000    -0.182383   
C280     C      0.962170000000     0.614790000000     0.483150000000    -0.00586675 
C281     C      0.871790000000     0.107130000000     0.991920000000    -0.0338801  
C282     C      0.953530000000     0.608550000000     0.434260000000    -0.00705285 
C283     C      0.864550000000     0.104980000000     0.942560000000     0.0790198  
C284     C      0.803890000000     0.075370000000     0.932000000000    -0.18594    
C285     C      0.946520000000     0.917170000000     0.446540000000    -0.00910192 
C286     C      0.855770000000     0.832930000000     0.952130000000    -0.0351113  
C287     C      0.973030000000     0.884050000000     0.460350000000    -0.00580617 
C288     C      0.882940000000     0.798880000000     0.959600000000     0.077439   
C289     C      0.842600000000     0.745020000000     0.981680000000    -0.180614   
C290     C      0.972640000000     0.900870000000     0.193850000000    -0.00661852 
C291     C      0.877920000000     0.825270000000     0.177300000000    -0.0334379  
C292     C      0.942790000000     0.927240000000     0.214680000000    -0.00814455 
C293     C      0.867310000000     0.829650000000     0.225710000000     0.0779286  
C294     C      0.805860000000     0.800510000000     0.232620000000    -0.183565   
C295     C      0.876070000000     0.041450000000     0.892110000000     0.528709   
C296     C      0.866960000000     0.040230000000     0.776860000000     0.532681   
C297     C      0.735810000000     0.891440000000     0.776330000000     0.532305   
C298     C      0.874170000000     0.898920000000     0.893740000000     0.518752   
C299     C      0.880940000000     0.905130000000     0.775960000000     0.523839   
C300     C      0.732400000000     0.897060000000     0.891030000000     0.52489    
C301     C      0.954990000000     0.835400000000     0.635120000000     0.527215   
C302     C      0.951000000000     0.817590000000     0.519060000000     0.52069    
C303     C      0.950230000000     0.677130000000     0.532010000000     0.522041   
C304     C      0.086600000000     0.820000000000     0.645220000000     0.527991   
C305     C      0.094690000000     0.822430000000     0.528860000000     0.530663   
C306     C      0.944710000000     0.691460000000     0.647550000000     0.522212   
C307     C      0.670870000000     0.908450000000     0.440270000000    -0.00784114 
C308     C      0.165170000000     0.817890000000     0.932460000000    -0.0339072  
C309     C      0.664690000000     0.900260000000     0.489010000000    -0.00500588 
C310     C      0.160120000000     0.810140000000     0.981910000000     0.0795766  
C311     C      0.129010000000     0.748980000000     0.992250000000    -0.186748   
C312     C      0.143020000000     0.894390000000     0.695900000000    -0.00686485 
C313     C      0.114870000000     0.798130000000     0.713970000000    -0.0342037  
C314     C      0.699310000000     0.912610000000     0.713460000000    -0.00709327 
C315     C      0.671790000000     0.814580000000     0.729800000000     0.0775246  
C316     C      0.666840000000     0.775220000000     0.766300000000    -0.184641   
C317     C      0.965260000000     0.644330000000     0.704920000000    -0.00561043 
C318     C      0.885720000000     0.657540000000     0.711770000000    -0.0338001  
C319     C      0.931050000000     0.085310000000     0.718590000000    -0.00735178 
C320     C      0.849560000000     0.097610000000     0.724730000000     0.0769665  
C321     C      0.804660000000     0.093220000000     0.754990000000    -0.182415   
C322     C      0.962170000000     0.614790000000     0.983150000000    -0.00582262 
C323     C      0.871790000000     0.107130000000     0.491920000000    -0.0340141  
C324     C      0.953530000000     0.608550000000     0.934260000000    -0.0070739  
C325     C      0.864550000000     0.104980000000     0.442550000000     0.0790522  
C326     C      0.803890000000     0.075370000000     0.432000000000    -0.185877   
C327     C      0.946520000000     0.917170000000     0.946540000000    -0.00908995 
C328     C      0.855770000000     0.832930000000     0.452130000000    -0.0351136  
C329     C      0.973030000000     0.884050000000     0.960350000000    -0.00582988 
C330     C      0.882940000000     0.798880000000     0.459600000000     0.0774511  
C331     C      0.842600000000     0.745020000000     0.481680000000    -0.180679   
C332     C      0.972640000000     0.900870000000     0.693850000000    -0.00661867 
C333     C      0.877920000000     0.825270000000     0.677300000000    -0.0334392  
C334     C      0.942790000000     0.927240000000     0.714680000000    -0.00814424 
C335     C      0.867310000000     0.829650000000     0.725710000000     0.0779297  
C336     C      0.805860000000     0.800510000000     0.732620000000    -0.183567   
Fe1      Fe     0.291810000000     0.476740000000     0.334850000000     1.35859    
Fe2      Fe     0.297590000000     0.378110000000     0.334510000000     1.35299    
Fe3      Fe     0.395770000000     0.482280000000     0.334270000000     1.34414    
Fe4      Fe     0.430270000000     0.246170000000     0.083210000000     1.35684    
Fe5      Fe     0.527870000000     0.240810000000     0.087510000000     1.35871    
Fe6      Fe     0.533390000000     0.345450000000     0.081170000000     1.34401    
Fe7      Fe     0.291810000000     0.476740000000     0.834850000000     1.3585     
Fe8      Fe     0.297590000000     0.378110000000     0.834510000000     1.35299    
Fe9      Fe     0.395770000000     0.482280000000     0.834270000000     1.34417    
Fe10     Fe     0.430270000000     0.246170000000     0.583210000000     1.3567     
Fe11     Fe     0.527870000000     0.240810000000     0.587510000000     1.35876    
Fe12     Fe     0.533390000000     0.345450000000     0.581170000000     1.344      
Fe13     Fe     0.291810000000     0.976740000000     0.334850000000     1.35832    
Fe14     Fe     0.297590000000     0.878110000000     0.334510000000     1.35298    
Fe15     Fe     0.395770000000     0.982280000000     0.334270000000     1.34383    
Fe16     Fe     0.430270000000     0.746170000000     0.083210000000     1.35684    
Fe17     Fe     0.527870000000     0.740810000000     0.087510000000     1.3587     
Fe18     Fe     0.533390000000     0.845450000000     0.081170000000     1.34404    
Fe19     Fe     0.291810000000     0.976740000000     0.834850000000     1.35822    
Fe20     Fe     0.297590000000     0.878110000000     0.834510000000     1.35297    
Fe21     Fe     0.395770000000     0.982280000000     0.834270000000     1.34387    
Fe22     Fe     0.430270000000     0.746170000000     0.583210000000     1.3567     
Fe23     Fe     0.527870000000     0.740810000000     0.587510000000     1.35874    
Fe24     Fe     0.533390000000     0.845450000000     0.581170000000     1.34403    
Fe25     Fe     0.791810000000     0.476740000000     0.334850000000     1.35864    
Fe26     Fe     0.797590000000     0.378110000000     0.334510000000     1.353      
Fe27     Fe     0.895760000000     0.482280000000     0.334270000000     1.34436    
Fe28     Fe     0.930270000000     0.246170000000     0.083210000000     1.35688    
Fe29     Fe     0.027870000000     0.240810000000     0.087510000000     1.35643    
Fe30     Fe     0.033390000000     0.345450000000     0.081170000000     1.34185    
Fe31     Fe     0.791810000000     0.476740000000     0.834850000000     1.35855    
Fe32     Fe     0.797590000000     0.378110000000     0.834510000000     1.35299    
Fe33     Fe     0.895760000000     0.482280000000     0.834270000000     1.3444     
Fe34     Fe     0.930270000000     0.246170000000     0.583210000000     1.35673    
Fe35     Fe     0.027870000000     0.240810000000     0.587510000000     1.35647    
Fe36     Fe     0.033390000000     0.345450000000     0.581170000000     1.34184    
Fe37     Fe     0.791810000000     0.976740000000     0.334850000000     1.35838    
Fe38     Fe     0.797600000000     0.878110000000     0.334510000000     1.35288    
Fe39     Fe     0.895770000000     0.982280000000     0.334270000000     1.34395    
Fe40     Fe     0.930270000000     0.746170000000     0.083210000000     1.3569     
Fe41     Fe     0.027870000000     0.740810000000     0.087510000000     1.35641    
Fe42     Fe     0.033390000000     0.845450000000     0.081170000000     1.34184    
Fe43     Fe     0.791810000000     0.976740000000     0.834850000000     1.35828    
Fe44     Fe     0.797600000000     0.878110000000     0.834510000000     1.35287    
Fe45     Fe     0.895770000000     0.982280000000     0.834270000000     1.34399    
Fe46     Fe     0.930270000000     0.746170000000     0.583210000000     1.35676    
Fe47     Fe     0.027870000000     0.740810000000     0.587510000000     1.35645    
Fe48     Fe     0.033390000000     0.845450000000     0.581170000000     1.34183    
H1       H      0.585850000000     0.231030000000     0.483670000000     0.0792017  
H2       H      0.624150000000     0.297860000000     0.417990000000     0.0432339  
H3       H      0.130310000000     0.394530000000     0.926270000000     0.0363545  
H4       H      0.144370000000     0.421820000000     0.002040000000     0.0321329  
H5       H      0.686890000000     0.297790000000     0.419240000000     0.0422287  
H6       H      0.645730000000     0.227490000000     0.473500000000     0.056209   
H7       H      0.701640000000     0.327090000000     0.494940000000     0.019075   
H8       H      0.196110000000     0.452380000000     0.933050000000     0.032026   
H9       H      0.205710000000     0.419830000000     0.003390000000     0.0347102  
H10      H      0.633520000000     0.241640000000     0.526810000000     0.0729001  
H11      H      0.151030000000     0.283650000000     0.296320000000     0.0677991  
H12      H      0.590160000000     0.297390000000     0.242000000000     0.0452091  
H13      H      0.618810000000     0.398400000000     0.222190000000     0.0372365  
H14      H      0.215400000000     0.453030000000     0.229040000000     0.0371362  
H15      H      0.595870000000     0.256220000000     0.200770000000     0.0452613  
H16      H      0.139090000000     0.232490000000     0.256600000000     0.0554251  
H17      H      0.194100000000     0.309790000000     0.202330000000     0.0161678  
H18      H      0.646090000000     0.421980000000     0.169240000000     0.0376486  
H19      H      0.226010000000     0.417960000000     0.185590000000     0.0376675  
H20      H      0.205930000000     0.277940000000     0.273220000000     0.0626478  
H21      H      0.320450000000     0.107240000000     0.288120000000     0.0640798  
H22      H      0.401830000000     0.182530000000     0.241530000000     0.0444323  
H23      H      0.485040000000     0.168860000000     0.234250000000     0.0356204  
H24      H      0.456730000000     0.573030000000     0.236750000000     0.0382092  
H25      H      0.361180000000     0.171710000000     0.194160000000     0.0427132  
H26      H      0.287880000000     0.118430000000     0.242770000000     0.0547839  
H27      H      0.330200000000     0.574470000000     0.194720000000     0.0192235  
H28      H      0.497610000000     0.148470000000     0.182740000000     0.0362289  
H29      H      0.417190000000     0.560010000000     0.188860000000     0.0385279  
H30      H      0.270270000000     0.551090000000     0.255990000000     0.0701074  
H31      H      0.285190000000     0.531410000000     0.939010000000     0.0797777  
H32      H      0.353060000000     0.564960000000     0.004610000000     0.0447165  
H33      H      0.449170000000     0.074010000000     0.496940000000     0.0363158  
H34      H      0.474080000000     0.087260000000     0.421180000000     0.0341493  
H35      H      0.350550000000     0.626830000000     0.006740000000     0.0410557  
H36      H      0.283090000000     0.591850000000     0.951900000000     0.0547541  
H37      H      0.382150000000     0.647580000000     0.931080000000     0.0182754  
H38      H      0.505780000000     0.140830000000     0.490140000000     0.0327974  
H39      H      0.473800000000     0.149880000000     0.419860000000     0.0344369  
H40      H      0.296940000000     0.582220000000     0.897890000000     0.0705318  
H41      H      0.334910000000     0.251850000000     0.015660000000     0.0640933  
H42      H      0.346460000000     0.344510000000     0.983970000000     0.0458709  
H43      H      0.442450000000     0.437580000000     0.475750000000     0.0380454  
H44      H      0.509180000000     0.410140000000     0.480260000000     0.0387322  
H45      H      0.317090000000     0.308050000000     0.934680000000     0.0429802  
H46      H      0.303500000000     0.225560000000     0.964230000000     0.0537144  
H47      H      0.392010000000     0.288470000000     0.927150000000     0.0194956  
H48      H      0.473590000000     0.449520000000     0.423700000000     0.0377761  
H49      H      0.487540000000     0.373460000000     0.430610000000     0.0370699  
H50      H      0.357210000000     0.215570000000     0.980100000000     0.0763821  
H51      H      0.289430000000     0.326100000000     0.220720000000     0.0810721  
H52      H      0.358770000000     0.343560000000     0.157390000000     0.0444476  
H53      H      0.506370000000     0.431530000000     0.173820000000     0.033376   
H54      H      0.428560000000     0.444280000000     0.188910000000     0.0391643  
H55      H      0.358790000000     0.281660000000     0.168180000000     0.0426465  
H56      H      0.285490000000     0.261430000000     0.214750000000     0.0552811  
H57      H      0.383190000000     0.307410000000     0.244590000000     0.0206116  
H58      H      0.490480000000     0.387500000000     0.219600000000     0.0408309  
H59      H      0.471830000000     0.461710000000     0.235090000000     0.0339567  
H60      H      0.295210000000     0.289560000000     0.266990000000     0.0688749  
H61      H      0.585850000000     0.231030000000     0.983670000000     0.0792092  
H62      H      0.624150000000     0.297860000000     0.917990000000     0.04324    
H63      H      0.130310000000     0.394530000000     0.426270000000     0.0363396  
H64      H      0.144370000000     0.421820000000     0.502040000000     0.0321924  
H65      H      0.686890000000     0.297790000000     0.919250000000     0.0422312  
H66      H      0.645730000000     0.227490000000     0.973500000000     0.056201   
H67      H      0.701640000000     0.327090000000     0.994940000000     0.0190861  
H68      H      0.196110000000     0.452380000000     0.433040000000     0.0320134  
H69      H      0.205710000000     0.419830000000     0.503390000000     0.0347747  
H70      H      0.633520000000     0.241640000000     0.026810000000     0.0728599  
H71      H      0.151030000000     0.283650000000     0.796320000000     0.0677998  
H72      H      0.590160000000     0.297390000000     0.742000000000     0.0452093  
H73      H      0.618810000000     0.398400000000     0.722190000000     0.0372351  
H74      H      0.215400000000     0.453030000000     0.729040000000     0.037143   
H75      H      0.595870000000     0.256220000000     0.700770000000     0.0452621  
H76      H      0.139090000000     0.232490000000     0.756600000000     0.0554258  
H77      H      0.194100000000     0.309790000000     0.702330000000     0.0161703  
H78      H      0.646090000000     0.421980000000     0.669240000000     0.0376495  
H79      H      0.226010000000     0.417960000000     0.685600000000     0.0376828  
H80      H      0.205930000000     0.277940000000     0.773220000000     0.0626483  
H81      H      0.320450000000     0.107240000000     0.788120000000     0.0641193  
H82      H      0.401830000000     0.182530000000     0.741530000000     0.0444318  
H83      H      0.485040000000     0.168860000000     0.734250000000     0.0356207  
H84      H      0.456730000000     0.573030000000     0.736750000000     0.0382112  
H85      H      0.361180000000     0.171710000000     0.694160000000     0.0427126  
H86      H      0.287880000000     0.118430000000     0.742770000000     0.0547807  
H87      H      0.330200000000     0.574470000000     0.694720000000     0.0192288  
H88      H      0.497610000000     0.148470000000     0.682740000000     0.0362302  
H89      H      0.417190000000     0.560010000000     0.688860000000     0.0385319  
H90      H      0.270270000000     0.551090000000     0.755990000000     0.0701171  
H91      H      0.285190000000     0.531410000000     0.439010000000     0.0797608  
H92      H      0.353060000000     0.564960000000     0.504610000000     0.0447777  
H93      H      0.449170000000     0.074010000000     0.996940000000     0.0363208  
H94      H      0.474080000000     0.087260000000     0.921180000000     0.0341541  
H95      H      0.350550000000     0.626830000000     0.506740000000     0.0411158  
H96      H      0.283090000000     0.591850000000     0.451900000000     0.0547324  
H97      H      0.382150000000     0.647580000000     0.431080000000     0.0182617  
H98      H      0.505780000000     0.140830000000     0.990140000000     0.0328025  
H99      H      0.473800000000     0.149880000000     0.919860000000     0.0344428  
H100     H      0.296940000000     0.582220000000     0.397880000000     0.070493   
H101     H      0.334910000000     0.251850000000     0.515660000000     0.0641361  
H102     H      0.346460000000     0.344510000000     0.483970000000     0.0458599  
H103     H      0.442450000000     0.437580000000     0.975750000000     0.038051   
H104     H      0.509180000000     0.410140000000     0.980260000000     0.0387526  
H105     H      0.317090000000     0.308050000000     0.434680000000     0.0429771  
H106     H      0.303500000000     0.225560000000     0.464230000000     0.0537211  
H107     H      0.392010000000     0.288470000000     0.427150000000     0.0194923  
H108     H      0.473590000000     0.449520000000     0.923690000000     0.0377714  
H109     H      0.487540000000     0.373460000000     0.930620000000     0.0370848  
H110     H      0.357210000000     0.215570000000     0.480100000000     0.0763841  
H111     H      0.289430000000     0.326100000000     0.720720000000     0.0810733  
H112     H      0.358770000000     0.343560000000     0.657390000000     0.044451   
H113     H      0.506370000000     0.431530000000     0.673820000000     0.0333784  
H114     H      0.428560000000     0.444280000000     0.688910000000     0.0391667  
H115     H      0.358790000000     0.281660000000     0.668180000000     0.0426486  
H116     H      0.285490000000     0.261430000000     0.714750000000     0.0552827  
H117     H      0.383190000000     0.307410000000     0.744590000000     0.0206122  
H118     H      0.490480000000     0.387500000000     0.719600000000     0.040832   
H119     H      0.471830000000     0.461710000000     0.735090000000     0.0339583  
H120     H      0.295210000000     0.289560000000     0.766990000000     0.0688755  
H121     H      0.585850000000     0.731030000000     0.483670000000     0.0791971  
H122     H      0.624150000000     0.797860000000     0.417990000000     0.0432342  
H123     H      0.130310000000     0.894530000000     0.926270000000     0.0363247  
H124     H      0.144370000000     0.921820000000     0.002040000000     0.0321113  
H125     H      0.686890000000     0.797790000000     0.419240000000     0.0422148  
H126     H      0.645730000000     0.727490000000     0.473500000000     0.0561944  
H127     H      0.701640000000     0.827090000000     0.494940000000     0.0190717  
H128     H      0.196110000000     0.952380000000     0.933050000000     0.0319647  
H129     H      0.205720000000     0.919830000000     0.003390000000     0.0346798  
H130     H      0.633520000000     0.741640000000     0.526810000000     0.0728869  
H131     H      0.151030000000     0.783650000000     0.296320000000     0.0677964  
H132     H      0.590160000000     0.797390000000     0.242000000000     0.0452083  
H133     H      0.618810000000     0.898410000000     0.222190000000     0.0371867  
H134     H      0.215400000000     0.953030000000     0.229040000000     0.037096   
H135     H      0.595870000000     0.756220000000     0.200770000000     0.0452563  
H136     H      0.139090000000     0.732490000000     0.256600000000     0.0554158  
H137     H      0.194100000000     0.809790000000     0.202330000000     0.0161639  
H138     H      0.646090000000     0.921980000000     0.169240000000     0.0375924  
H139     H      0.226010000000     0.917970000000     0.185590000000     0.0376444  
H140     H      0.205930000000     0.777940000000     0.273220000000     0.062644   
H141     H      0.320450000000     0.607240000000     0.288120000000     0.0640553  
H142     H      0.401830000000     0.682540000000     0.241530000000     0.0444216  
H143     H      0.485040000000     0.668860000000     0.234250000000     0.0356224  
H144     H      0.456730000000     0.073030000000     0.236750000000     0.0382657  
H145     H      0.361180000000     0.671710000000     0.194160000000     0.0427023  
H146     H      0.287880000000     0.618440000000     0.242770000000     0.0547255  
H147     H      0.330200000000     0.074480000000     0.194720000000     0.0192443  
H148     H      0.497610000000     0.648470000000     0.182740000000     0.0362211  
H149     H      0.417190000000     0.060010000000     0.188860000000     0.0385861  
H150     H      0.270270000000     0.051090000000     0.255990000000     0.0701697  
H151     H      0.285190000000     0.031410000000     0.939010000000     0.0798424  
H152     H      0.353060000000     0.064960000000     0.004610000000     0.0447517  
H153     H      0.449170000000     0.574000000000     0.496940000000     0.0362741  
H154     H      0.474080000000     0.587260000000     0.421180000000     0.0341006  
H155     H      0.350550000000     0.126830000000     0.006740000000     0.0410685  
H156     H      0.283090000000     0.091850000000     0.951900000000     0.0547838  
H157     H      0.382150000000     0.147580000000     0.931080000000     0.0182715  
H158     H      0.505780000000     0.640830000000     0.490140000000     0.0327865  
H159     H      0.473800000000     0.649880000000     0.419860000000     0.0344134  
H160     H      0.296940000000     0.082220000000     0.897890000000     0.0705606  
H161     H      0.334910000000     0.751850000000     0.015660000000     0.0640865  
H162     H      0.346460000000     0.844510000000     0.983970000000     0.0458616  
H163     H      0.442450000000     0.937590000000     0.475750000000     0.0380016  
H164     H      0.509180000000     0.910140000000     0.480260000000     0.0387177  
H165     H      0.317090000000     0.808060000000     0.934680000000     0.0429867  
H166     H      0.303500000000     0.725560000000     0.964230000000     0.0537068  
H167     H      0.392010000000     0.788470000000     0.927150000000     0.0194954  
H168     H      0.473590000000     0.949520000000     0.423700000000     0.0377371  
H169     H      0.487540000000     0.873460000000     0.430610000000     0.0370658  
H170     H      0.357210000000     0.715570000000     0.980100000000     0.0763792  
H171     H      0.289430000000     0.826100000000     0.220720000000     0.0810653  
H172     H      0.358770000000     0.843560000000     0.157390000000     0.044436   
H173     H      0.506370000000     0.931530000000     0.173820000000     0.0333319  
H174     H      0.428560000000     0.944280000000     0.188910000000     0.0391496  
H175     H      0.358790000000     0.781660000000     0.168180000000     0.0426417  
H176     H      0.285490000000     0.761430000000     0.214750000000     0.0552737  
H177     H      0.383190000000     0.807410000000     0.244590000000     0.0206125  
H178     H      0.490480000000     0.887500000000     0.219600000000     0.0408042  
H179     H      0.471830000000     0.961710000000     0.235090000000     0.0339411  
H180     H      0.295210000000     0.789560000000     0.266990000000     0.0688714  
H181     H      0.585850000000     0.731030000000     0.983670000000     0.0792045  
H182     H      0.624150000000     0.797860000000     0.917990000000     0.0432403  
H183     H      0.130310000000     0.894530000000     0.426270000000     0.0363099  
H184     H      0.144370000000     0.921820000000     0.502040000000     0.0321708  
H185     H      0.686890000000     0.797790000000     0.919250000000     0.0422173  
H186     H      0.645730000000     0.727490000000     0.973500000000     0.0561865  
H187     H      0.701640000000     0.827090000000     0.994940000000     0.0190828  
H188     H      0.196110000000     0.952380000000     0.433040000000     0.0319521  
H189     H      0.205720000000     0.919830000000     0.503390000000     0.0347441  
H190     H      0.633520000000     0.741640000000     0.026810000000     0.0728468  
H191     H      0.151030000000     0.783650000000     0.796320000000     0.0677971  
H192     H      0.590160000000     0.797390000000     0.742000000000     0.0452085  
H193     H      0.618810000000     0.898410000000     0.722190000000     0.0371853  
H194     H      0.215400000000     0.953030000000     0.729040000000     0.0371029  
H195     H      0.595870000000     0.756220000000     0.700770000000     0.0452571  
H196     H      0.139090000000     0.732490000000     0.756600000000     0.0554165  
H197     H      0.194100000000     0.809790000000     0.702330000000     0.0161664  
H198     H      0.646090000000     0.921980000000     0.669240000000     0.0375933  
H199     H      0.226010000000     0.917970000000     0.685600000000     0.0376597  
H200     H      0.205930000000     0.777940000000     0.773220000000     0.0626444  
H201     H      0.320450000000     0.607240000000     0.788120000000     0.0640947  
H202     H      0.401830000000     0.682540000000     0.741530000000     0.0444211  
H203     H      0.485040000000     0.668860000000     0.734250000000     0.0356227  
H204     H      0.456730000000     0.073030000000     0.736750000000     0.0382676  
H205     H      0.361180000000     0.671710000000     0.694160000000     0.0427017  
H206     H      0.287880000000     0.618440000000     0.742770000000     0.0547223  
H207     H      0.330200000000     0.074480000000     0.694720000000     0.0192496  
H208     H      0.497610000000     0.648470000000     0.682740000000     0.0362225  
H209     H      0.417190000000     0.060010000000     0.688860000000     0.0385901  
H210     H      0.270270000000     0.051090000000     0.755990000000     0.0701795  
H211     H      0.285190000000     0.031410000000     0.439010000000     0.0798255  
H212     H      0.353060000000     0.064960000000     0.504610000000     0.044813   
H213     H      0.449170000000     0.574000000000     0.996940000000     0.0362791  
H214     H      0.474080000000     0.587260000000     0.921180000000     0.0341054  
H215     H      0.350550000000     0.126830000000     0.506740000000     0.0411286  
H216     H      0.283090000000     0.091850000000     0.451900000000     0.0547622  
H217     H      0.382150000000     0.147580000000     0.431080000000     0.0182579  
H218     H      0.505780000000     0.640830000000     0.990140000000     0.0327916  
H219     H      0.473800000000     0.649880000000     0.919860000000     0.0344193  
H220     H      0.296940000000     0.082220000000     0.397880000000     0.0705218  
H221     H      0.334910000000     0.751850000000     0.515660000000     0.0641294  
H222     H      0.346460000000     0.844510000000     0.483970000000     0.0458506  
H223     H      0.442450000000     0.937590000000     0.975750000000     0.0380072  
H224     H      0.509180000000     0.910140000000     0.980260000000     0.0387382  
H225     H      0.317090000000     0.808060000000     0.434680000000     0.0429837  
H226     H      0.303500000000     0.725560000000     0.464230000000     0.0537136  
H227     H      0.392010000000     0.788470000000     0.427150000000     0.0194921  
H228     H      0.473590000000     0.949520000000     0.923690000000     0.0377324  
H229     H      0.487540000000     0.873460000000     0.930620000000     0.0370807  
H230     H      0.357210000000     0.715570000000     0.480100000000     0.0763811  
H231     H      0.289430000000     0.826100000000     0.720720000000     0.0810665  
H232     H      0.358770000000     0.843560000000     0.657390000000     0.0444394  
H233     H      0.506370000000     0.931530000000     0.673820000000     0.0333342  
H234     H      0.428560000000     0.944280000000     0.688910000000     0.039152   
H235     H      0.358790000000     0.781660000000     0.668180000000     0.0426439  
H236     H      0.285490000000     0.761430000000     0.714750000000     0.0552752  
H237     H      0.383190000000     0.807410000000     0.744590000000     0.0206131  
H238     H      0.490480000000     0.887500000000     0.719600000000     0.0408054  
H239     H      0.471830000000     0.961710000000     0.735090000000     0.0339427  
H240     H      0.295210000000     0.789560000000     0.766990000000     0.068872   
H241     H      0.085850000000     0.231030000000     0.483670000000     0.0789982  
H242     H      0.124150000000     0.297860000000     0.417990000000     0.0430065  
H243     H      0.630310000000     0.394530000000     0.926270000000     0.0365826  
H244     H      0.644370000000     0.421820000000     0.002040000000     0.0322134  
H245     H      0.186890000000     0.297790000000     0.419240000000     0.0421367  
H246     H      0.145730000000     0.227490000000     0.473500000000     0.0560455  
H247     H      0.201640000000     0.327090000000     0.494940000000     0.019099   
H248     H      0.696120000000     0.452380000000     0.933050000000     0.0321093  
H249     H      0.705710000000     0.419830000000     0.003390000000     0.0347097  
H250     H      0.133520000000     0.241640000000     0.526810000000     0.0728072  
H251     H      0.651030000000     0.283650000000     0.296320000000     0.0679672  
H252     H      0.090160000000     0.297390000000     0.242000000000     0.0448852  
H253     H      0.118810000000     0.398400000000     0.222190000000     0.0370162  
H254     H      0.715400000000     0.453030000000     0.229040000000     0.037172   
H255     H      0.095870000000     0.256220000000     0.200770000000     0.0449623  
H256     H      0.639090000000     0.232490000000     0.256600000000     0.0556834  
H257     H      0.694110000000     0.309790000000     0.202330000000     0.0161746  
H258     H      0.146090000000     0.421980000000     0.169240000000     0.0375743  
H259     H      0.726010000000     0.417960000000     0.185590000000     0.0376696  
H260     H      0.705930000000     0.277940000000     0.273220000000     0.0627582  
H261     H      0.820450000000     0.107240000000     0.288120000000     0.0641512  
H262     H      0.901830000000     0.182530000000     0.241530000000     0.0445652  
H263     H      0.985040000000     0.168860000000     0.234250000000     0.0359949  
H264     H      0.956730000000     0.573030000000     0.236750000000     0.0383929  
H265     H      0.861180000000     0.171710000000     0.194160000000     0.0427542  
H266     H      0.787880000000     0.118430000000     0.242770000000     0.0548686  
H267     H      0.830200000000     0.574470000000     0.194720000000     0.0192373  
H268     H      0.997610000000     0.148470000000     0.182740000000     0.0366527  
H269     H      0.917190000000     0.560010000000     0.188860000000     0.0386017  
H270     H      0.770270000000     0.551090000000     0.255990000000     0.0701656  
H271     H      0.785190000000     0.531410000000     0.939010000000     0.0797875  
H272     H      0.853060000000     0.564960000000     0.004610000000     0.0446962  
H273     H      0.949170000000     0.074010000000     0.496940000000     0.0361116  
H274     H      0.974080000000     0.087260000000     0.421180000000     0.0345852  
H275     H      0.850540000000     0.626830000000     0.006740000000     0.0410193  
H276     H      0.783090000000     0.591850000000     0.951900000000     0.0548054  
H277     H      0.882160000000     0.647580000000     0.931080000000     0.0183704  
H278     H      0.005780000000     0.140830000000     0.490140000000     0.0313222  
H279     H      0.973800000000     0.149880000000     0.419860000000     0.0349426  
H280     H      0.796940000000     0.582220000000     0.897890000000     0.0705758  
H281     H      0.834900000000     0.251850000000     0.015660000000     0.0641071  
H282     H      0.846460000000     0.344510000000     0.983970000000     0.0459041  
H283     H      0.942450000000     0.437580000000     0.475750000000     0.0383913  
H284     H      0.009180000000     0.410140000000     0.480260000000     0.0371622  
H285     H      0.817090000000     0.308050000000     0.934680000000     0.0430153  
H286     H      0.803500000000     0.225560000000     0.964230000000     0.0537595  
H287     H      0.892010000000     0.288470000000     0.927150000000     0.0195684  
H288     H      0.973590000000     0.449520000000     0.423700000000     0.0382074  
H289     H      0.987540000000     0.373460000000     0.430610000000     0.0370618  
H290     H      0.857210000000     0.215570000000     0.980100000000     0.0764243  
H291     H      0.789430000000     0.326100000000     0.220720000000     0.0810772  
H292     H      0.858770000000     0.343560000000     0.157390000000     0.0444473  
H293     H      0.006370000000     0.431530000000     0.173820000000     0.0318414  
H294     H      0.928560000000     0.444280000000     0.188910000000     0.039461   
H295     H      0.858790000000     0.281660000000     0.168180000000     0.0426333  
H296     H      0.785490000000     0.261430000000     0.214750000000     0.055328   
H297     H      0.883190000000     0.307410000000     0.244590000000     0.0207007  
H298     H      0.990480000000     0.387500000000     0.219600000000     0.0408284  
H299     H      0.971830000000     0.461710000000     0.235090000000     0.034392   
H300     H      0.795210000000     0.289560000000     0.266990000000     0.0689072  
H301     H      0.085850000000     0.231030000000     0.983670000000     0.0790056  
H302     H      0.124150000000     0.297860000000     0.917990000000     0.0430126  
H303     H      0.630310000000     0.394530000000     0.426270000000     0.0365678  
H304     H      0.644370000000     0.421820000000     0.502040000000     0.0322729  
H305     H      0.186890000000     0.297790000000     0.919250000000     0.0421392  
H306     H      0.145730000000     0.227490000000     0.973500000000     0.0560375  
H307     H      0.201640000000     0.327090000000     0.994940000000     0.0191101  
H308     H      0.696120000000     0.452380000000     0.433040000000     0.0320968  
H309     H      0.705710000000     0.419830000000     0.503390000000     0.034774   
H310     H      0.133520000000     0.241640000000     0.026810000000     0.072767   
H311     H      0.651030000000     0.283650000000     0.796320000000     0.0679679  
H312     H      0.090160000000     0.297390000000     0.742000000000     0.0448854  
H313     H      0.118810000000     0.398400000000     0.722190000000     0.0370148  
H314     H      0.715400000000     0.453030000000     0.729040000000     0.0371789  
H315     H      0.095870000000     0.256220000000     0.700770000000     0.0449631  
H316     H      0.639090000000     0.232490000000     0.756600000000     0.0556841  
H317     H      0.694110000000     0.309790000000     0.702330000000     0.0161771  
H318     H      0.146090000000     0.421980000000     0.669240000000     0.0375752  
H319     H      0.726010000000     0.417960000000     0.685600000000     0.0376849  
H320     H      0.705930000000     0.277940000000     0.773220000000     0.0627586  
H321     H      0.820450000000     0.107240000000     0.788120000000     0.0641907  
H322     H      0.901830000000     0.182530000000     0.741530000000     0.0445647  
H323     H      0.985040000000     0.168860000000     0.734250000000     0.0359952  
H324     H      0.956730000000     0.573030000000     0.736750000000     0.0383949  
H325     H      0.861180000000     0.171710000000     0.694160000000     0.0427536  
H326     H      0.787880000000     0.118430000000     0.742770000000     0.0548654  
H327     H      0.830200000000     0.574470000000     0.694720000000     0.0192426  
H328     H      0.997610000000     0.148470000000     0.682740000000     0.0366541  
H329     H      0.917190000000     0.560010000000     0.688860000000     0.0386057  
H330     H      0.770270000000     0.551090000000     0.755990000000     0.0701753  
H331     H      0.785190000000     0.531410000000     0.439010000000     0.0797707  
H332     H      0.853060000000     0.564960000000     0.504610000000     0.0447574  
H333     H      0.949170000000     0.074010000000     0.996940000000     0.0361166  
H334     H      0.974080000000     0.087260000000     0.921180000000     0.0345899  
H335     H      0.850540000000     0.626830000000     0.506740000000     0.0410792  
H336     H      0.783090000000     0.591850000000     0.451900000000     0.0547838  
H337     H      0.882160000000     0.647580000000     0.431080000000     0.0183568  
H338     H      0.005780000000     0.140830000000     0.990140000000     0.0313274  
H339     H      0.973800000000     0.149880000000     0.919860000000     0.0349484  
H340     H      0.796940000000     0.582220000000     0.397880000000     0.070537   
H341     H      0.834900000000     0.251850000000     0.515660000000     0.0641498  
H342     H      0.846460000000     0.344510000000     0.483970000000     0.0458931  
H343     H      0.942450000000     0.437580000000     0.975750000000     0.0383968  
H344     H      0.009180000000     0.410140000000     0.980260000000     0.0371828  
H345     H      0.817090000000     0.308050000000     0.434680000000     0.0430122  
H346     H      0.803500000000     0.225560000000     0.464230000000     0.0537662  
H347     H      0.892010000000     0.288470000000     0.427150000000     0.0195651  
H348     H      0.973590000000     0.449520000000     0.923690000000     0.0382026  
H349     H      0.987540000000     0.373460000000     0.930620000000     0.0370764  
H350     H      0.857210000000     0.215570000000     0.480100000000     0.0764263  
H351     H      0.789430000000     0.326100000000     0.720720000000     0.0810784  
H352     H      0.858770000000     0.343560000000     0.657390000000     0.0444508  
H353     H      0.006370000000     0.431530000000     0.673820000000     0.0318437  
H354     H      0.928560000000     0.444280000000     0.688910000000     0.0394634  
H355     H      0.858790000000     0.281660000000     0.668180000000     0.0426354  
H356     H      0.785490000000     0.261430000000     0.714750000000     0.0553295  
H357     H      0.883190000000     0.307410000000     0.744590000000     0.0207013  
H358     H      0.990480000000     0.387500000000     0.719600000000     0.0408295  
H359     H      0.971830000000     0.461710000000     0.735090000000     0.0343935  
H360     H      0.795210000000     0.289560000000     0.766990000000     0.0689078  
H361     H      0.085850000000     0.731030000000     0.483670000000     0.0789939  
H362     H      0.124150000000     0.797860000000     0.417990000000     0.0430027  
H363     H      0.630310000000     0.894530000000     0.926270000000     0.0365545  
H364     H      0.644370000000     0.921820000000     0.002040000000     0.0321892  
H365     H      0.186890000000     0.797790000000     0.419240000000     0.0421406  
H366     H      0.145730000000     0.727490000000     0.473500000000     0.0560356  
H367     H      0.201640000000     0.827090000000     0.494940000000     0.0190899  
H368     H      0.696110000000     0.952380000000     0.933050000000     0.0320427  
H369     H      0.705720000000     0.919830000000     0.003390000000     0.0346757  
H370     H      0.133520000000     0.741640000000     0.526810000000     0.0727982  
H371     H      0.651030000000     0.783650000000     0.296320000000     0.0679802  
H372     H      0.090160000000     0.797390000000     0.242000000000     0.0448829  
H373     H      0.118810000000     0.898410000000     0.222190000000     0.0369647  
H374     H      0.715400000000     0.953030000000     0.229040000000     0.0371325  
H375     H      0.095870000000     0.756220000000     0.200770000000     0.0449577  
H376     H      0.639090000000     0.732490000000     0.256600000000     0.0556741  
H377     H      0.694100000000     0.809790000000     0.202330000000     0.0161655  
H378     H      0.146090000000     0.921980000000     0.169240000000     0.0375182  
H379     H      0.726010000000     0.917970000000     0.185590000000     0.0376444  
H380     H      0.705930000000     0.777940000000     0.273220000000     0.0627196  
H381     H      0.820450000000     0.607240000000     0.288120000000     0.0641153  
H382     H      0.901830000000     0.682540000000     0.241530000000     0.0445425  
H383     H      0.985040000000     0.668860000000     0.234250000000     0.0360088  
H384     H      0.956730000000     0.073030000000     0.236750000000     0.0384489  
H385     H      0.861180000000     0.671710000000     0.194160000000     0.0427333  
H386     H      0.787880000000     0.618440000000     0.242770000000     0.0547974  
H387     H      0.830200000000     0.074480000000     0.194720000000     0.0192508  
H388     H      0.997610000000     0.648470000000     0.182740000000     0.0366556  
H389     H      0.917190000000     0.060010000000     0.188860000000     0.0386635  
H390     H      0.770280000000     0.051090000000     0.255990000000     0.0702561  
H391     H      0.785190000000     0.031410000000     0.939010000000     0.0798728  
H392     H      0.853060000000     0.064960000000     0.004610000000     0.0447384  
H393     H      0.949170000000     0.574000000000     0.496940000000     0.03607    
H394     H      0.974080000000     0.587260000000     0.421180000000     0.0345484  
H395     H      0.850550000000     0.126830000000     0.006740000000     0.041054   
H396     H      0.783100000000     0.091850000000     0.951900000000     0.0548742  
H397     H      0.882150000000     0.147580000000     0.931080000000     0.0183561  
H398     H      0.005780000000     0.640830000000     0.490140000000     0.0313136  
H399     H      0.973800000000     0.649880000000     0.419860000000     0.0349218  
H400     H      0.796940000000     0.082220000000     0.897890000000     0.0706278  
H401     H      0.834910000000     0.751850000000     0.015660000000     0.064121   
H402     H      0.846460000000     0.844510000000     0.983970000000     0.0458944  
H403     H      0.942450000000     0.937590000000     0.475750000000     0.0383443  
H404     H      0.009180000000     0.910140000000     0.480260000000     0.037146   
H405     H      0.817090000000     0.808060000000     0.934680000000     0.0430215  
H406     H      0.803500000000     0.725560000000     0.964230000000     0.0537706  
H407     H      0.892010000000     0.788470000000     0.927150000000     0.0195629  
H408     H      0.973590000000     0.949520000000     0.423700000000     0.0381564  
H409     H      0.987540000000     0.873460000000     0.430610000000     0.0370556  
H410     H      0.857200000000     0.715570000000     0.980100000000     0.0764486  
H411     H      0.789430000000     0.826100000000     0.220720000000     0.0810634  
H412     H      0.858770000000     0.843560000000     0.157390000000     0.044438   
H413     H      0.006370000000     0.931530000000     0.173820000000     0.0318239  
H414     H      0.928560000000     0.944280000000     0.188910000000     0.0394524  
H415     H      0.858790000000     0.781660000000     0.168180000000     0.042628   
H416     H      0.785490000000     0.761430000000     0.214750000000     0.0553132  
H417     H      0.883190000000     0.807410000000     0.244590000000     0.0206971  
H418     H      0.990480000000     0.887500000000     0.219600000000     0.0408268  
H419     H      0.971830000000     0.961710000000     0.235090000000     0.034376   
H420     H      0.795210000000     0.789560000000     0.266990000000     0.0688957  
H421     H      0.085850000000     0.731030000000     0.983670000000     0.0790013  
H422     H      0.124150000000     0.797860000000     0.917990000000     0.0430089  
H423     H      0.630310000000     0.894530000000     0.426270000000     0.0365397  
H424     H      0.644370000000     0.921820000000     0.502040000000     0.0322487  
H425     H      0.186890000000     0.797790000000     0.919250000000     0.042143   
H426     H      0.145730000000     0.727490000000     0.973500000000     0.0560277  
H427     H      0.201640000000     0.827090000000     0.994940000000     0.019101   
H428     H      0.696110000000     0.952380000000     0.433040000000     0.0320302  
H429     H      0.705720000000     0.919830000000     0.503390000000     0.03474    
H430     H      0.133520000000     0.741640000000     0.026810000000     0.072758   
H431     H      0.651030000000     0.783650000000     0.796320000000     0.0679809  
H432     H      0.090160000000     0.797390000000     0.742000000000     0.0448831  
H433     H      0.118810000000     0.898410000000     0.722190000000     0.0369633  
H434     H      0.715400000000     0.953030000000     0.729040000000     0.0371394  
H435     H      0.095870000000     0.756220000000     0.700770000000     0.0449585  
H436     H      0.639090000000     0.732490000000     0.756600000000     0.0556748  
H437     H      0.694100000000     0.809790000000     0.702330000000     0.016168   
H438     H      0.146090000000     0.921980000000     0.669240000000     0.0375191  
H439     H      0.726010000000     0.917970000000     0.685600000000     0.0376596  
H440     H      0.705930000000     0.777940000000     0.773220000000     0.0627201  
H441     H      0.820450000000     0.607240000000     0.788120000000     0.0641548  
H442     H      0.901830000000     0.682540000000     0.741530000000     0.0445421  
H443     H      0.985040000000     0.668860000000     0.734250000000     0.0360091  
H444     H      0.956730000000     0.073030000000     0.736750000000     0.0384509  
H445     H      0.861180000000     0.671710000000     0.694160000000     0.0427327  
H446     H      0.787880000000     0.618440000000     0.742770000000     0.0547941  
H447     H      0.830200000000     0.074480000000     0.694720000000     0.0192561  
H448     H      0.997610000000     0.648470000000     0.682740000000     0.036657   
H449     H      0.917190000000     0.060010000000     0.688860000000     0.0386675  
H450     H      0.770280000000     0.051090000000     0.755990000000     0.0702658  
H451     H      0.785190000000     0.031410000000     0.439010000000     0.079856   
H452     H      0.853060000000     0.064960000000     0.504610000000     0.0447996  
H453     H      0.949170000000     0.574000000000     0.996940000000     0.036075   
H454     H      0.974080000000     0.587260000000     0.921180000000     0.0345531  
H455     H      0.850550000000     0.126830000000     0.506740000000     0.041114   
H456     H      0.783100000000     0.091850000000     0.451900000000     0.0548525  
H457     H      0.882150000000     0.147580000000     0.431080000000     0.0183424  
H458     H      0.005780000000     0.640830000000     0.990140000000     0.0313188  
H459     H      0.973800000000     0.649880000000     0.919860000000     0.0349277  
H460     H      0.796940000000     0.082220000000     0.397880000000     0.0705889  
H461     H      0.834910000000     0.751850000000     0.515660000000     0.0641638  
H462     H      0.846460000000     0.844510000000     0.483970000000     0.0458835  
H463     H      0.942450000000     0.937590000000     0.975750000000     0.0383499  
H464     H      0.009180000000     0.910140000000     0.980260000000     0.0371666  
H465     H      0.817090000000     0.808060000000     0.434680000000     0.0430185  
H466     H      0.803500000000     0.725560000000     0.464230000000     0.0537773  
H467     H      0.892010000000     0.788470000000     0.427150000000     0.0195596  
H468     H      0.973590000000     0.949520000000     0.923690000000     0.0381517  
H469     H      0.987540000000     0.873460000000     0.930620000000     0.0370702  
H470     H      0.857200000000     0.715570000000     0.480100000000     0.0764506  
H471     H      0.789430000000     0.826100000000     0.720720000000     0.0810646  
H472     H      0.858770000000     0.843560000000     0.657390000000     0.0444414  
H473     H      0.006370000000     0.931530000000     0.673820000000     0.0318263  
H474     H      0.928560000000     0.944280000000     0.688910000000     0.0394548  
H475     H      0.858790000000     0.781660000000     0.668180000000     0.0426302  
H476     H      0.785490000000     0.761430000000     0.714750000000     0.0553148  
H477     H      0.883190000000     0.807410000000     0.744590000000     0.0206977  
H478     H      0.990480000000     0.887500000000     0.719600000000     0.040828   
H479     H      0.971830000000     0.961710000000     0.735090000000     0.0343775  
H480     H      0.795210000000     0.789560000000     0.766990000000     0.0688962  
N1       N      0.636440000000     0.341980000000     0.999980000000    -0.199209   
N2       N      0.192690000000     0.375970000000     0.421520000000    -0.186381   
N3       N      0.199910000000     0.372340000000     0.243120000000    -0.2001     
N4       N      0.616590000000     0.337420000000     0.182190000000    -0.185499   
N5       N      0.383250000000     0.576250000000     0.243350000000    -0.198968   
N6       N      0.431120000000     0.163660000000     0.185650000000    -0.185017   
N7       N      0.395690000000     0.581320000000     0.423020000000    -0.198322   
N8       N      0.429460000000     0.135820000000     0.002580000000    -0.185355   
N9       N      0.434840000000     0.333100000000     0.982560000000    -0.195465   
N10      N      0.392470000000     0.382500000000     0.428170000000    -0.183449   
N11      N      0.395910000000     0.387410000000     0.240080000000    -0.197391   
N12      N      0.435850000000     0.353660000000     0.167580000000    -0.186435   
N13      N      0.636440000000     0.341980000000     0.499980000000    -0.199234   
N14      N      0.192690000000     0.375970000000     0.921520000000    -0.186372   
N15      N      0.199910000000     0.372340000000     0.743120000000    -0.200095   
N16      N      0.616590000000     0.337420000000     0.682190000000    -0.185499   
N17      N      0.383250000000     0.576250000000     0.743350000000    -0.198954   
N18      N      0.431120000000     0.163660000000     0.685650000000    -0.185016   
N19      N      0.395690000000     0.581320000000     0.923030000000    -0.198242   
N20      N      0.429460000000     0.135820000000     0.502580000000    -0.1853     
N21      N      0.434840000000     0.333100000000     0.482560000000    -0.195488   
N22      N      0.392470000000     0.382500000000     0.928170000000    -0.183432   
N23      N      0.395910000000     0.387410000000     0.740080000000    -0.19739    
N24      N      0.435850000000     0.353660000000     0.667580000000    -0.186432   
N25      N      0.636430000000     0.841980000000     0.999980000000    -0.199215   
N26      N      0.192690000000     0.875970000000     0.421520000000    -0.186394   
N27      N      0.199910000000     0.872340000000     0.243120000000    -0.200095   
N28      N      0.616590000000     0.837420000000     0.182190000000    -0.185519   
N29      N      0.383250000000     0.076250000000     0.243350000000    -0.198942   
N30      N      0.431120000000     0.663660000000     0.185650000000    -0.185019   
N31      N      0.395690000000     0.081320000000     0.423020000000    -0.198295   
N32      N      0.429460000000     0.635820000000     0.002580000000    -0.185359   
N33      N      0.434840000000     0.833100000000     0.982560000000    -0.195465   
N34      N      0.392470000000     0.882500000000     0.428170000000    -0.183453   
N35      N      0.395910000000     0.887410000000     0.240080000000    -0.197382   
N36      N      0.435850000000     0.853660000000     0.167580000000    -0.186449   
N37      N      0.636430000000     0.841980000000     0.499980000000    -0.19924    
N38      N      0.192690000000     0.875970000000     0.921520000000    -0.186386   
N39      N      0.199910000000     0.872340000000     0.743120000000    -0.20009    
N40      N      0.616590000000     0.837420000000     0.682190000000    -0.185519   
N41      N      0.383250000000     0.076250000000     0.743350000000    -0.198929   
N42      N      0.431120000000     0.663660000000     0.685650000000    -0.185018   
N43      N      0.395690000000     0.081320000000     0.923030000000    -0.198215   
N44      N      0.429460000000     0.635820000000     0.502580000000    -0.185304   
N45      N      0.434840000000     0.833100000000     0.482560000000    -0.195489   
N46      N      0.392470000000     0.882500000000     0.928170000000    -0.183437   
N47      N      0.395910000000     0.887410000000     0.740080000000    -0.197382   
N48      N      0.435850000000     0.853660000000     0.667580000000    -0.186447   
N49      N      0.136430000000     0.341980000000     0.999980000000    -0.199176   
N50      N      0.692690000000     0.375970000000     0.421520000000    -0.186338   
N51      N      0.699910000000     0.372340000000     0.243120000000    -0.200126   
N52      N      0.116590000000     0.337420000000     0.182190000000    -0.18554    
N53      N      0.883250000000     0.576250000000     0.243350000000    -0.198957   
N54      N      0.931120000000     0.163660000000     0.185650000000    -0.18489    
N55      N      0.895690000000     0.581320000000     0.423020000000    -0.198262   
N56      N      0.929460000000     0.135820000000     0.002580000000    -0.185759   
N57      N      0.934840000000     0.333100000000     0.982560000000    -0.195565   
N58      N      0.892470000000     0.382500000000     0.428170000000    -0.183336   
N59      N      0.895910000000     0.387410000000     0.240080000000    -0.197298   
N60      N      0.935850000000     0.353660000000     0.167580000000    -0.186837   
N61      N      0.136430000000     0.341980000000     0.499980000000    -0.199201   
N62      N      0.692690000000     0.375970000000     0.921520000000    -0.186329   
N63      N      0.699910000000     0.372340000000     0.743120000000    -0.200122   
N64      N      0.116590000000     0.337420000000     0.682190000000    -0.18554    
N65      N      0.883250000000     0.576250000000     0.743350000000    -0.198943   
N66      N      0.931120000000     0.163660000000     0.685650000000    -0.184889   
N67      N      0.895690000000     0.581320000000     0.923030000000    -0.198182   
N68      N      0.929460000000     0.135820000000     0.502580000000    -0.185704   
N69      N      0.934840000000     0.333100000000     0.482560000000    -0.195589   
N70      N      0.892470000000     0.382500000000     0.928170000000    -0.18332    
N71      N      0.895910000000     0.387410000000     0.740080000000    -0.197298   
N72      N      0.935850000000     0.353660000000     0.667580000000    -0.186835   
N73      N      0.136430000000     0.841980000000     0.999980000000    -0.199178   
N74      N      0.692690000000     0.875970000000     0.421520000000    -0.186346   
N75      N      0.699910000000     0.872340000000     0.243120000000    -0.200092   
N76      N      0.116590000000     0.837420000000     0.182190000000    -0.185558   
N77      N      0.883250000000     0.076250000000     0.243350000000    -0.198932   
N78      N      0.931110000000     0.663660000000     0.185650000000    -0.184891   
N79      N      0.895690000000     0.081320000000     0.423020000000    -0.198241   
N80      N      0.929460000000     0.635820000000     0.002580000000    -0.185769   
N81      N      0.934840000000     0.833100000000     0.982560000000    -0.19557    
N82      N      0.892470000000     0.882500000000     0.428170000000    -0.183371   
N83      N      0.895900000000     0.887410000000     0.240080000000    -0.197326   
N84      N      0.935850000000     0.853660000000     0.167580000000    -0.186838   
N85      N      0.136430000000     0.841980000000     0.499980000000    -0.199203   
N86      N      0.692690000000     0.875970000000     0.921520000000    -0.186338   
N87      N      0.699910000000     0.872340000000     0.743120000000    -0.200088   
N88      N      0.116590000000     0.837420000000     0.682190000000    -0.185558   
N89      N      0.883250000000     0.076250000000     0.743350000000    -0.198918   
N90      N      0.931110000000     0.663660000000     0.685650000000    -0.18489    
N91      N      0.895690000000     0.081320000000     0.923030000000    -0.198161   
N92      N      0.929460000000     0.635820000000     0.502580000000    -0.185714   
N93      N      0.934840000000     0.833100000000     0.482560000000    -0.195594   
N94      N      0.892470000000     0.882500000000     0.928170000000    -0.183355   
N95      N      0.895900000000     0.887410000000     0.740080000000    -0.197326   
N96      N      0.935850000000     0.853660000000     0.667580000000    -0.186835   
O1       O      0.401270000000     0.538840000000     0.301630000000    -0.502552   
O2       O      0.324550000000     0.377020000000     0.386770000000    -0.509319   
O3       O      0.318040000000     0.508170000000     0.283330000000    -0.51762    
O4       O      0.339220000000     0.535830000000     0.366780000000    -0.510404   
O5       O      0.399250000000     0.454860000000     0.282220000000    -0.504736   
O6       O      0.237730000000     0.366030000000     0.364940000000    -0.507355   
O7       O      0.328420000000     0.445900000000     0.334680000000    -0.86507    
O8       O      0.267680000000     0.373980000000     0.282350000000    -0.517851   
O9       O      0.235960000000     0.425820000000     0.302150000000    -0.505583   
O10      O      0.398220000000     0.513530000000     0.385820000000    -0.506447   
O11      O      0.261540000000     0.447420000000     0.386450000000    -0.511516   
O12      O      0.349570000000     0.372340000000     0.303880000000    -0.504894   
O13      O      0.406540000000     0.434470000000     0.367520000000    -0.492486   
O14      O      0.486650000000     0.352690000000     0.043920000000    -0.48942    
O15      O      0.556900000000     0.270260000000     0.138790000000    -0.517562   
O16      O      0.430030000000     0.268470000000     0.028880000000    -0.511664   
O17      O      0.423130000000     0.300470000000     0.108610000000    -0.508141   
O18      O      0.566300000000     0.344410000000     0.031760000000    -0.509955   
O19      O      0.476060000000     0.186940000000     0.121350000000    -0.50056    
O20      O      0.497490000000     0.277730000000     0.083760000000    -0.867345   
O21      O      0.500190000000     0.207230000000     0.036400000000    -0.508085   
O22      O      0.419270000000     0.183450000000     0.057300000000    -0.503493   
O23      O      0.504450000000     0.353220000000     0.130870000000    -0.507201   
O24      O      0.426110000000     0.221710000000     0.137780000000    -0.508239   
O25      O      0.587930000000     0.286510000000     0.055950000000    -0.508772   
O26      O      0.588050000000     0.353220000000     0.117330000000    -0.497642   
O27      O      0.401270000000     0.538840000000     0.801630000000    -0.502549   
O28      O      0.324550000000     0.377020000000     0.886770000000    -0.509277   
O29      O      0.318040000000     0.508170000000     0.783320000000    -0.517511   
O30      O      0.339220000000     0.535830000000     0.866770000000    -0.510346   
O31      O      0.399250000000     0.454860000000     0.782220000000    -0.504734   
O32      O      0.237730000000     0.366030000000     0.864940000000    -0.507351   
O33      O      0.328420000000     0.445900000000     0.834680000000    -0.865062   
O34      O      0.267680000000     0.373980000000     0.782350000000    -0.517849   
O35      O      0.235960000000     0.425820000000     0.802150000000    -0.505575   
O36      O      0.398220000000     0.513530000000     0.885820000000    -0.506396   
O37      O      0.261540000000     0.447420000000     0.886450000000    -0.511503   
O38      O      0.349570000000     0.372340000000     0.803880000000    -0.504884   
O39      O      0.406540000000     0.434470000000     0.867510000000    -0.492454   
O40      O      0.486650000000     0.352690000000     0.543920000000    -0.489433   
O41      O      0.556900000000     0.270260000000     0.638790000000    -0.517543   
O42      O      0.430030000000     0.268470000000     0.528870000000    -0.511579   
O43      O      0.423130000000     0.300470000000     0.608610000000    -0.508123   
O44      O      0.566300000000     0.344410000000     0.531760000000    -0.509888   
O45      O      0.476060000000     0.186940000000     0.621350000000    -0.500552   
O46      O      0.497490000000     0.277730000000     0.583770000000    -0.867335   
O47      O      0.500190000000     0.207230000000     0.536400000000    -0.508102   
O48      O      0.419270000000     0.183450000000     0.557300000000    -0.50348    
O49      O      0.504450000000     0.353220000000     0.630870000000    -0.507181   
O50      O      0.426110000000     0.221710000000     0.637780000000    -0.508197   
O51      O      0.587930000000     0.286510000000     0.555960000000    -0.508635   
O52      O      0.588050000000     0.353220000000     0.617330000000    -0.497616   
O53      O      0.401270000000     0.038840000000     0.301630000000    -0.502335   
O54      O      0.324550000000     0.877020000000     0.386770000000    -0.50932    
O55      O      0.318040000000     0.008170000000     0.283330000000    -0.517527   
O56      O      0.339220000000     0.035830000000     0.366780000000    -0.51028    
O57      O      0.399250000000     0.954860000000     0.282220000000    -0.504742   
O58      O      0.237730000000     0.866030000000     0.364940000000    -0.50735    
O59      O      0.328420000000     0.945900000000     0.334680000000    -0.865016   
O60      O      0.267680000000     0.873980000000     0.282350000000    -0.517848   
O61      O      0.235960000000     0.925820000000     0.302150000000    -0.505573   
O62      O      0.398220000000     0.013530000000     0.385820000000    -0.506278   
O63      O      0.261540000000     0.947420000000     0.386450000000    -0.511535   
O64      O      0.349570000000     0.872340000000     0.303880000000    -0.504886   
O65      O      0.406540000000     0.934470000000     0.367520000000    -0.492475   
O66      O      0.486650000000     0.852690000000     0.043920000000    -0.489424   
O67      O      0.556900000000     0.770260000000     0.138790000000    -0.517565   
O68      O      0.430030000000     0.768470000000     0.028880000000    -0.511662   
O69      O      0.423130000000     0.800470000000     0.108610000000    -0.508146   
O70      O      0.566290000000     0.844410000000     0.031760000000    -0.509888   
O71      O      0.476060000000     0.686940000000     0.121350000000    -0.500566   
O72      O      0.497490000000     0.777730000000     0.083760000000    -0.867341   
O73      O      0.500190000000     0.707230000000     0.036400000000    -0.508083   
O74      O      0.419270000000     0.683450000000     0.057300000000    -0.503499   
O75      O      0.504450000000     0.853220000000     0.130870000000    -0.507214   
O76      O      0.426110000000     0.721710000000     0.137780000000    -0.50824    
O77      O      0.587930000000     0.786510000000     0.055950000000    -0.508738   
O78      O      0.588050000000     0.853220000000     0.117330000000    -0.497662   
O79      O      0.401270000000     0.038840000000     0.801630000000    -0.502333   
O80      O      0.324550000000     0.877020000000     0.886770000000    -0.509278   
O81      O      0.318040000000     0.008170000000     0.783320000000    -0.517417   
O82      O      0.339220000000     0.035830000000     0.866770000000    -0.510222   
O83      O      0.399250000000     0.954860000000     0.782220000000    -0.50474    
O84      O      0.237730000000     0.866030000000     0.864940000000    -0.507346   
O85      O      0.328420000000     0.945900000000     0.834680000000    -0.865007   
O86      O      0.267680000000     0.873980000000     0.782350000000    -0.517846   
O87      O      0.235960000000     0.925820000000     0.802150000000    -0.505564   
O88      O      0.398220000000     0.013530000000     0.885820000000    -0.506227   
O89      O      0.261540000000     0.947420000000     0.886450000000    -0.511522   
O90      O      0.349570000000     0.872340000000     0.803880000000    -0.504875   
O91      O      0.406540000000     0.934470000000     0.867510000000    -0.492443   
O92      O      0.486650000000     0.852690000000     0.543920000000    -0.489437   
O93      O      0.556900000000     0.770260000000     0.638790000000    -0.517546   
O94      O      0.430030000000     0.768470000000     0.528870000000    -0.511577   
O95      O      0.423130000000     0.800470000000     0.608610000000    -0.508128   
O96      O      0.566290000000     0.844410000000     0.531760000000    -0.50982    
O97      O      0.476060000000     0.686940000000     0.621350000000    -0.500558   
O98      O      0.497490000000     0.777730000000     0.583770000000    -0.867331   
O99      O      0.500190000000     0.707230000000     0.536400000000    -0.5081     
O100     O      0.419270000000     0.683450000000     0.557300000000    -0.503486   
O101     O      0.504450000000     0.853220000000     0.630870000000    -0.507193   
O102     O      0.426110000000     0.721710000000     0.637780000000    -0.508199   
O103     O      0.587930000000     0.786510000000     0.555960000000    -0.508602   
O104     O      0.588050000000     0.853220000000     0.617330000000    -0.497635   
O105     O      0.901270000000     0.538840000000     0.301630000000    -0.502504   
O106     O      0.824550000000     0.377020000000     0.386770000000    -0.509279   
O107     O      0.818040000000     0.508170000000     0.283330000000    -0.517626   
O108     O      0.839230000000     0.535830000000     0.366780000000    -0.510486   
O109     O      0.899250000000     0.454860000000     0.282220000000    -0.504656   
O110     O      0.737730000000     0.366030000000     0.364940000000    -0.507323   
O111     O      0.828420000000     0.445900000000     0.334680000000    -0.865257   
O112     O      0.767680000000     0.373980000000     0.282350000000    -0.517743   
O113     O      0.735960000000     0.425820000000     0.302150000000    -0.505552   
O114     O      0.898220000000     0.513530000000     0.385820000000    -0.506474   
O115     O      0.761540000000     0.447420000000     0.386450000000    -0.511514   
O116     O      0.849570000000     0.372340000000     0.303880000000    -0.504872   
O117     O      0.906550000000     0.434470000000     0.367520000000    -0.492217   
O118     O      0.986650000000     0.352690000000     0.043920000000    -0.488229   
O119     O      0.056900000000     0.270260000000     0.138790000000    -0.517728   
O120     O      0.930030000000     0.268470000000     0.028880000000    -0.511452   
O121     O      0.923130000000     0.300470000000     0.108610000000    -0.508481   
O122     O      0.066290000000     0.344410000000     0.031760000000    -0.509978   
O123     O      0.976060000000     0.186940000000     0.121350000000    -0.49952    
O124     O      0.997490000000     0.277730000000     0.083760000000    -0.865349   
O125     O      0.000190000000     0.207230000000     0.036400000000    -0.509586   
O126     O      0.919270000000     0.183450000000     0.057300000000    -0.503756   
O127     O      0.004450000000     0.353220000000     0.130870000000    -0.50868    
O128     O      0.926110000000     0.221710000000     0.137780000000    -0.50801    
O129     O      0.087930000000     0.286510000000     0.055950000000    -0.508422   
O130     O      0.088050000000     0.353220000000     0.117330000000    -0.497371   
O131     O      0.901270000000     0.538840000000     0.801630000000    -0.502501   
O132     O      0.824550000000     0.377020000000     0.886770000000    -0.509238   
O133     O      0.818040000000     0.508170000000     0.783320000000    -0.517517   
O134     O      0.839230000000     0.535830000000     0.866770000000    -0.510428   
O135     O      0.899250000000     0.454860000000     0.782220000000    -0.504654   
O136     O      0.737730000000     0.366030000000     0.864940000000    -0.507319   
O137     O      0.828420000000     0.445900000000     0.834680000000    -0.865248   
O138     O      0.767680000000     0.373980000000     0.782350000000    -0.517741   
O139     O      0.735960000000     0.425820000000     0.802150000000    -0.505544   
O140     O      0.898220000000     0.513530000000     0.885820000000    -0.506423   
O141     O      0.761540000000     0.447420000000     0.886450000000    -0.511501   
O142     O      0.849570000000     0.372340000000     0.803880000000    -0.504862   
O143     O      0.906550000000     0.434470000000     0.867510000000    -0.492185   
O144     O      0.986650000000     0.352690000000     0.543920000000    -0.488242   
O145     O      0.056900000000     0.270260000000     0.638790000000    -0.517709   
O146     O      0.930030000000     0.268470000000     0.528870000000    -0.511367   
O147     O      0.923130000000     0.300470000000     0.608610000000    -0.508463   
O148     O      0.066290000000     0.344410000000     0.531760000000    -0.50991    
O149     O      0.976060000000     0.186940000000     0.621350000000    -0.499512   
O150     O      0.997490000000     0.277730000000     0.583770000000    -0.86534    
O151     O      0.000190000000     0.207230000000     0.536400000000    -0.509602   
O152     O      0.919270000000     0.183450000000     0.557300000000    -0.503744   
O153     O      0.004450000000     0.353220000000     0.630870000000    -0.50866    
O154     O      0.926110000000     0.221710000000     0.637780000000    -0.507969   
O155     O      0.087930000000     0.286510000000     0.555960000000    -0.508286   
O156     O      0.088050000000     0.353220000000     0.617330000000    -0.497344   
O157     O      0.901270000000     0.038840000000     0.301630000000    -0.502243   
O158     O      0.824550000000     0.877020000000     0.386770000000    -0.509346   
O159     O      0.818040000000     0.008170000000     0.283330000000    -0.517533   
O160     O      0.839220000000     0.035830000000     0.366780000000    -0.510309   
O161     O      0.899250000000     0.954860000000     0.282220000000    -0.504722   
O162     O      0.737730000000     0.866030000000     0.364940000000    -0.507193   
O163     O      0.828420000000     0.945900000000     0.334680000000    -0.865037   
O164     O      0.767680000000     0.873980000000     0.282350000000    -0.5178     
O165     O      0.735960000000     0.925820000000     0.302150000000    -0.505514   
O166     O      0.898210000000     0.013530000000     0.385820000000    -0.506323   
O167     O      0.761540000000     0.947420000000     0.386450000000    -0.511507   
O168     O      0.849580000000     0.872340000000     0.303880000000    -0.504921   
O169     O      0.906540000000     0.934470000000     0.367520000000    -0.492382   
O170     O      0.986650000000     0.852690000000     0.043920000000    -0.488229   
O171     O      0.056900000000     0.770260000000     0.138790000000    -0.517728   
O172     O      0.930040000000     0.768470000000     0.028880000000    -0.511456   
O173     O      0.923130000000     0.800470000000     0.108610000000    -0.508495   
O174     O      0.066290000000     0.844410000000     0.031760000000    -0.509977   
O175     O      0.976060000000     0.686940000000     0.121350000000    -0.499525   
O176     O      0.997490000000     0.777730000000     0.083760000000    -0.865338   
O177     O      0.000190000000     0.707230000000     0.036400000000    -0.509502   
O178     O      0.919270000000     0.683450000000     0.057300000000    -0.503837   
O179     O      0.004450000000     0.853220000000     0.130870000000    -0.508687   
O180     O      0.926110000000     0.721710000000     0.137780000000    -0.508012   
O181     O      0.087930000000     0.786510000000     0.055950000000    -0.508424   
O182     O      0.088050000000     0.853220000000     0.117330000000    -0.497381   
O183     O      0.901270000000     0.038840000000     0.801630000000    -0.502241   
O184     O      0.824550000000     0.877020000000     0.886770000000    -0.509304   
O185     O      0.818040000000     0.008170000000     0.783320000000    -0.517424   
O186     O      0.839220000000     0.035830000000     0.866770000000    -0.510251   
O187     O      0.899250000000     0.954860000000     0.782220000000    -0.50472    
O188     O      0.737730000000     0.866030000000     0.864940000000    -0.507189   
O189     O      0.828420000000     0.945900000000     0.834680000000    -0.865028   
O190     O      0.767680000000     0.873980000000     0.782350000000    -0.517798   
O191     O      0.735960000000     0.925820000000     0.802150000000    -0.505506   
O192     O      0.898210000000     0.013530000000     0.885820000000    -0.506272   
O193     O      0.761540000000     0.947420000000     0.886450000000    -0.511494   
O194     O      0.849580000000     0.872340000000     0.803880000000    -0.504911   
O195     O      0.906540000000     0.934470000000     0.867510000000    -0.49235    
O196     O      0.986650000000     0.852690000000     0.543920000000    -0.488242   
O197     O      0.056900000000     0.770260000000     0.638790000000    -0.517709   
O198     O      0.930040000000     0.768470000000     0.528870000000    -0.511372   
O199     O      0.923130000000     0.800470000000     0.608610000000    -0.508477   
O200     O      0.066290000000     0.844410000000     0.531760000000    -0.50991    
O201     O      0.976060000000     0.686940000000     0.621350000000    -0.499517   
O202     O      0.997490000000     0.777730000000     0.583770000000    -0.865329   
O203     O      0.000190000000     0.707230000000     0.536400000000    -0.509519   
O204     O      0.919270000000     0.683450000000     0.557300000000    -0.503825   
O205     O      0.004450000000     0.853220000000     0.630870000000    -0.508666   
O206     O      0.926110000000     0.721710000000     0.637780000000    -0.507971   
O207     O      0.087930000000     0.786510000000     0.555960000000    -0.508288   
O208     O      0.088050000000     0.853220000000     0.617330000000    -0.497354   


