data_structure

_audit_creation_method RASPA-1.0
_audit_creation_date 2023-6-4
_audit_author_name 'Poobodin Mano'

_cell_length_a    29.0168
_cell_length_b    28.9908
_cell_length_c    30.5885
_cell_angle_alpha 90
_cell_angle_beta  90
_cell_angle_gamma 120
_cell_volume      22284.3

_symmetry_cell_setting          triclinic
_symmetry_space_group_name_Hall 'P 1'
_symmetry_space_group_name_H-M  'P 1'
_symmetry_Int_Tables_number     1

_symmetry_equiv_pos_as_xyz 'x,y,z'

loop_
_atom_site_label
_atom_site_type_symbol
_atom_site_fract_x
_atom_site_fract_y
_atom_site_fract_z
_atom_site_charge
C1       C      0.217140000000     0.383430000000     0.278900000000     0.525789   
C2       C      0.218260000000     0.389790000000     0.395370000000     0.544851   
C3       C      0.362270000000     0.519290000000     0.399010000000     0.541551   
C4       C      0.358590000000     0.387900000000     0.276360000000     0.520021   
C5       C      0.350460000000     0.376850000000     0.395150000000     0.529059   
C6       C      0.359260000000     0.526600000000     0.281670000000     0.538967   
C7       C      0.423770000000     0.303240000000     0.029540000000     0.544763   
C8       C      0.436840000000     0.312670000000     0.147230000000     0.53447    
C9       C      0.574590000000     0.311430000000     0.141860000000     0.537842   
C10      C      0.437120000000     0.171600000000     0.027930000000     0.52965    
C11      C      0.431300000000     0.169420000000     0.144890000000     0.527287   
C12      C      0.566180000000     0.313260000000     0.024090000000     0.526147   
C13      C      0.613580000000     0.291900000000     0.967760000000    -0.00888239 
C14      C      0.606320000000     0.374350000000     0.461670000000    -0.0596479  
C15      C      0.171450000000     0.323210000000     0.952510000000    -0.0042201  
C16      C      0.165510000000     0.407290000000     0.450170000000     0.170473   
C17      C      0.152930000000     0.307320000000     0.234350000000    -0.00964561 
C18      C      0.649810000000     0.392370000000     0.236270000000    -0.0583806  
C19      C      0.640320000000     0.301790000000     0.185560000000    -0.00409829 
C20      C      0.639660000000     0.388420000000     0.186750000000     0.16832    
C21      C      0.355260000000     0.105540000000     0.189620000000    -0.00976006 
C22      C      0.439550000000     0.601190000000     0.186820000000    -0.0586835  
C23      C      0.350150000000     0.092930000000     0.238390000000    -0.00388523 
C24      C      0.436020000000     0.590900000000     0.236290000000     0.169465   
C25      C      0.367760000000     0.621700000000     0.972670000000    -0.00970303 
C26      C      0.456690000000     0.126420000000     0.468760000000    -0.0595461  
C27      C      0.340710000000     0.563780000000     0.957190000000    -0.004449   
C28      C      0.429120000000     0.567050000000     0.457640000000     0.170388   
C29      C      0.418690000000     0.398390000000     0.451720000000    -0.00979893 
C30      C      0.329210000000     0.315360000000     0.957140000000    -0.0596873  
C31      C      0.444840000000     0.368430000000     0.471060000000    -0.00370473 
C32      C      0.355560000000     0.283760000000     0.972420000000     0.170539   
C33      C      0.339020000000     0.318330000000     0.220830000000    -0.00995896 
C34      C      0.421530000000     0.408080000000     0.215360000000    -0.0621157  
C35      C      0.370650000000     0.292000000000     0.205330000000    -0.00465068 
C36      C      0.454430000000     0.381760000000     0.203710000000     0.170903   
C37      C      0.217140000000     0.383430000000     0.778900000000     0.525792   
C38      C      0.218260000000     0.389790000000     0.895370000000     0.544856   
C39      C      0.362270000000     0.519290000000     0.899010000000     0.541433   
C40      C      0.358590000000     0.387900000000     0.776360000000     0.52003    
C41      C      0.350460000000     0.376850000000     0.895140000000     0.529023   
C42      C      0.359260000000     0.526600000000     0.781670000000     0.538978   
C43      C      0.423770000000     0.303240000000     0.529540000000     0.544826   
C44      C      0.436840000000     0.312670000000     0.647230000000     0.53447    
C45      C      0.574590000000     0.311430000000     0.641860000000     0.537833   
C46      C      0.437120000000     0.171600000000     0.527930000000     0.529587   
C47      C      0.431300000000     0.169420000000     0.644890000000     0.52728    
C48      C      0.566180000000     0.313260000000     0.524090000000     0.526118   
C49      C      0.613580000000     0.291900000000     0.467760000000    -0.00888248 
C50      C      0.606320000000     0.374350000000     0.961670000000    -0.0596476  
C51      C      0.171450000000     0.323210000000     0.452510000000    -0.00422037 
C52      C      0.165510000000     0.407290000000     0.950170000000     0.170473   
C53      C      0.152930000000     0.307320000000     0.734350000000    -0.00964557 
C54      C      0.649810000000     0.392370000000     0.736270000000    -0.0583804  
C55      C      0.640320000000     0.301790000000     0.685560000000    -0.00409846 
C56      C      0.639660000000     0.388420000000     0.686750000000     0.16832    
C57      C      0.355260000000     0.105540000000     0.689630000000    -0.00976346 
C58      C      0.439550000000     0.601190000000     0.686820000000    -0.0586839  
C59      C      0.350150000000     0.092930000000     0.738390000000    -0.00388181 
C60      C      0.436020000000     0.590900000000     0.736290000000     0.169466   
C61      C      0.367760000000     0.621700000000     0.472670000000    -0.00969524 
C62      C      0.456690000000     0.126420000000     0.968770000000    -0.0595026  
C63      C      0.340710000000     0.563780000000     0.457190000000    -0.00444408 
C64      C      0.429120000000     0.567050000000     0.957640000000     0.170366   
C65      C      0.418690000000     0.398390000000     0.951710000000    -0.00978419 
C66      C      0.329210000000     0.315360000000     0.457140000000    -0.0597005  
C67      C      0.444840000000     0.368430000000     0.971060000000    -0.00373007 
C68      C      0.355560000000     0.283760000000     0.472430000000     0.170629   
C69      C      0.339020000000     0.318330000000     0.720830000000    -0.00995827 
C70      C      0.421530000000     0.408080000000     0.715360000000    -0.0621146  
C71      C      0.370650000000     0.292000000000     0.705330000000    -0.0046509  
C72      C      0.454430000000     0.381760000000     0.703710000000     0.170903   
C73      C      0.217140000000     0.883430000000     0.278900000000     0.525767   
C74      C      0.218260000000     0.889790000000     0.395370000000     0.544998   
C75      C      0.362270000000     0.019300000000     0.399010000000     0.541733   
C76      C      0.358590000000     0.887900000000     0.276360000000     0.520112   
C77      C      0.350460000000     0.876850000000     0.395150000000     0.529123   
C78      C      0.359260000000     0.026600000000     0.281670000000     0.539163   
C79      C      0.423770000000     0.803240000000     0.029540000000     0.544762   
C80      C      0.436840000000     0.812670000000     0.147230000000     0.534472   
C81      C      0.574590000000     0.811430000000     0.141860000000     0.537834   
C82      C      0.437110000000     0.671600000000     0.027930000000     0.52964    
C83      C      0.431300000000     0.669420000000     0.144890000000     0.527458   
C84      C      0.566180000000     0.813260000000     0.024090000000     0.526141   
C85      C      0.613580000000     0.791900000000     0.967760000000    -0.00886819 
C86      C      0.606320000000     0.874350000000     0.461670000000    -0.0596578  
C87      C      0.171450000000     0.823210000000     0.952510000000    -0.00421206 
C88      C      0.165520000000     0.907290000000     0.450170000000     0.170484   
C89      C      0.152930000000     0.807320000000     0.234350000000    -0.00967981 
C90      C      0.649810000000     0.892370000000     0.236270000000    -0.0583879  
C91      C      0.640320000000     0.801790000000     0.185560000000    -0.00408297 
C92      C      0.639660000000     0.888420000000     0.186750000000     0.168256   
C93      C      0.355260000000     0.605530000000     0.189620000000    -0.00972704 
C94      C      0.439550000000     0.101190000000     0.186820000000    -0.0586874  
C95      C      0.350150000000     0.592930000000     0.238390000000    -0.00391285 
C96      C      0.436020000000     0.090900000000     0.236290000000     0.169462   
C97      C      0.367760000000     0.121700000000     0.972670000000    -0.00968745 
C98      C      0.456700000000     0.626420000000     0.468760000000    -0.0596168  
C99      C      0.340710000000     0.063780000000     0.957190000000    -0.0044542  
C100     C      0.429120000000     0.067050000000     0.457640000000     0.17038    
C101     C      0.418690000000     0.898400000000     0.451720000000    -0.00984895 
C102     C      0.329210000000     0.815370000000     0.957140000000    -0.0596505  
C103     C      0.444840000000     0.868420000000     0.471060000000    -0.00366525 
C104     C      0.355560000000     0.783760000000     0.972420000000     0.170515   
C105     C      0.339020000000     0.818330000000     0.220830000000    -0.00992358 
C106     C      0.421530000000     0.908080000000     0.215360000000    -0.0621289  
C107     C      0.370650000000     0.792000000000     0.205330000000    -0.00468102 
C108     C      0.454430000000     0.881760000000     0.203710000000     0.170908   
C109     C      0.217140000000     0.883430000000     0.778900000000     0.525771   
C110     C      0.218260000000     0.889790000000     0.895370000000     0.545004   
C111     C      0.362270000000     0.019300000000     0.899010000000     0.541614   
C112     C      0.358590000000     0.887900000000     0.776360000000     0.52012    
C113     C      0.350460000000     0.876850000000     0.895140000000     0.529087   
C114     C      0.359260000000     0.026600000000     0.781670000000     0.539174   
C115     C      0.423770000000     0.803240000000     0.529540000000     0.544825   
C116     C      0.436840000000     0.812670000000     0.647230000000     0.534471   
C117     C      0.574590000000     0.811430000000     0.641860000000     0.537825   
C118     C      0.437110000000     0.671600000000     0.527930000000     0.529577   
C119     C      0.431300000000     0.669420000000     0.644890000000     0.527451   
C120     C      0.566180000000     0.813260000000     0.524090000000     0.526111   
C121     C      0.613580000000     0.791900000000     0.467760000000    -0.00886828 
C122     C      0.606320000000     0.874350000000     0.961670000000    -0.0596576  
C123     C      0.171450000000     0.823210000000     0.452510000000    -0.00421233 
C124     C      0.165520000000     0.907290000000     0.950170000000     0.170484   
C125     C      0.152930000000     0.807320000000     0.734350000000    -0.00967976 
C126     C      0.649810000000     0.892370000000     0.736270000000    -0.0583877  
C127     C      0.640320000000     0.801790000000     0.685560000000    -0.00408315 
C128     C      0.639660000000     0.888420000000     0.686750000000     0.168256   
C129     C      0.355260000000     0.605530000000     0.689630000000    -0.00973044 
C130     C      0.439550000000     0.101190000000     0.686820000000    -0.0586878  
C131     C      0.350150000000     0.592930000000     0.738390000000    -0.00390944 
C132     C      0.436020000000     0.090900000000     0.736290000000     0.169462   
C133     C      0.367760000000     0.121700000000     0.472670000000    -0.00967966 
C134     C      0.456700000000     0.626420000000     0.968770000000    -0.0595734  
C135     C      0.340710000000     0.063780000000     0.457190000000    -0.00444928 
C136     C      0.429120000000     0.067050000000     0.957640000000     0.170358   
C137     C      0.418690000000     0.898400000000     0.951710000000    -0.0098342  
C138     C      0.329210000000     0.815370000000     0.457140000000    -0.0596637  
C139     C      0.444840000000     0.868420000000     0.971060000000    -0.00369059 
C140     C      0.355560000000     0.783760000000     0.472430000000     0.170605   
C141     C      0.339020000000     0.818330000000     0.720830000000    -0.00992289 
C142     C      0.421530000000     0.908080000000     0.715360000000    -0.0621277  
C143     C      0.370650000000     0.792000000000     0.705330000000    -0.00468124 
C144     C      0.454430000000     0.881760000000     0.703710000000     0.170907   
C145     C      0.717140000000     0.383430000000     0.278900000000     0.525613   
C146     C      0.718260000000     0.389790000000     0.395370000000     0.544912   
C147     C      0.862270000000     0.519290000000     0.399010000000     0.541598   
C148     C      0.858590000000     0.387900000000     0.276360000000     0.520172   
C149     C      0.850460000000     0.376850000000     0.395150000000     0.529082   
C150     C      0.859260000000     0.526600000000     0.281670000000     0.538978   
C151     C      0.923770000000     0.303240000000     0.029540000000     0.544244   
C152     C      0.936840000000     0.312670000000     0.147230000000     0.533778   
C153     C      0.074590000000     0.311430000000     0.141860000000     0.536851   
C154     C      0.937120000000     0.171600000000     0.027930000000     0.528869   
C155     C      0.931300000000     0.169420000000     0.144890000000     0.526739   
C156     C      0.066180000000     0.313260000000     0.024090000000     0.525188   
C157     C      0.113580000000     0.291900000000     0.967760000000    -0.00883069 
C158     C      0.106320000000     0.374350000000     0.461670000000    -0.0596172  
C159     C      0.671450000000     0.323210000000     0.952510000000    -0.00411873 
C160     C      0.665520000000     0.407290000000     0.450170000000     0.170518   
C161     C      0.652930000000     0.307320000000     0.234350000000    -0.00971729 
C162     C      0.149810000000     0.392370000000     0.236270000000    -0.0582708  
C163     C      0.140320000000     0.301790000000     0.185560000000    -0.0042039  
C164     C      0.139660000000     0.388420000000     0.186750000000     0.168117   
C165     C      0.855260000000     0.105540000000     0.189620000000    -0.00978715 
C166     C      0.939550000000     0.601190000000     0.186820000000    -0.0587717  
C167     C      0.850150000000     0.092930000000     0.238390000000    -0.00389062 
C168     C      0.936020000000     0.590900000000     0.236290000000     0.169557   
C169     C      0.867750000000     0.621700000000     0.972670000000    -0.00984356 
C170     C      0.956690000000     0.126420000000     0.468760000000    -0.0597245  
C171     C      0.840710000000     0.563780000000     0.957190000000    -0.00437786 
C172     C      0.929120000000     0.567050000000     0.457640000000     0.170513   
C173     C      0.918690000000     0.398390000000     0.451720000000    -0.00970507 
C174     C      0.829210000000     0.315360000000     0.957140000000    -0.0596815  
C175     C      0.944850000000     0.368430000000     0.471060000000    -0.00390096 
C176     C      0.855560000000     0.283760000000     0.972420000000     0.170519   
C177     C      0.839020000000     0.318330000000     0.220830000000    -0.00989698 
C178     C      0.921530000000     0.408080000000     0.215360000000    -0.0618203  
C179     C      0.870650000000     0.292000000000     0.205330000000    -0.00471468 
C180     C      0.954430000000     0.381760000000     0.203710000000     0.170192   
C181     C      0.717140000000     0.383430000000     0.778900000000     0.525616   
C182     C      0.718260000000     0.389790000000     0.895370000000     0.544917   
C183     C      0.862270000000     0.519290000000     0.899010000000     0.541479   
C184     C      0.858590000000     0.387900000000     0.776360000000     0.52018    
C185     C      0.850460000000     0.376850000000     0.895140000000     0.529046   
C186     C      0.859260000000     0.526600000000     0.781670000000     0.538988   
C187     C      0.923770000000     0.303240000000     0.529540000000     0.544307   
C188     C      0.936840000000     0.312670000000     0.647230000000     0.533777   
C189     C      0.074590000000     0.311430000000     0.641860000000     0.536842   
C190     C      0.937120000000     0.171600000000     0.527930000000     0.528806   
C191     C      0.931300000000     0.169420000000     0.644890000000     0.526732   
C192     C      0.066180000000     0.313260000000     0.524090000000     0.525159   
C193     C      0.113580000000     0.291900000000     0.467760000000    -0.00883077 
C194     C      0.106320000000     0.374350000000     0.961670000000    -0.059617   
C195     C      0.671450000000     0.323210000000     0.452510000000    -0.004119   
C196     C      0.665520000000     0.407290000000     0.950170000000     0.170518   
C197     C      0.652930000000     0.307320000000     0.734350000000    -0.00971723 
C198     C      0.149810000000     0.392370000000     0.736270000000    -0.0582706  
C199     C      0.140320000000     0.301790000000     0.685560000000    -0.00420406 
C200     C      0.139660000000     0.388420000000     0.686750000000     0.168117   
C201     C      0.855260000000     0.105540000000     0.689630000000    -0.00979048 
C202     C      0.939550000000     0.601190000000     0.686820000000    -0.0587721  
C203     C      0.850150000000     0.092930000000     0.738390000000    -0.00388722 
C204     C      0.936020000000     0.590900000000     0.736290000000     0.169557   
C205     C      0.867750000000     0.621700000000     0.472670000000    -0.00983567 
C206     C      0.956690000000     0.126420000000     0.968770000000    -0.059681   
C207     C      0.840710000000     0.563780000000     0.457190000000    -0.00437297 
C208     C      0.929120000000     0.567050000000     0.957640000000     0.170491   
C209     C      0.918690000000     0.398390000000     0.951710000000    -0.00969024 
C210     C      0.829210000000     0.315360000000     0.457140000000    -0.0596948  
C211     C      0.944850000000     0.368430000000     0.971060000000    -0.00392661 
C212     C      0.855560000000     0.283760000000     0.472430000000     0.170609   
C213     C      0.839020000000     0.318330000000     0.720830000000    -0.00989629 
C214     C      0.921530000000     0.408080000000     0.715360000000    -0.0618191  
C215     C      0.870650000000     0.292000000000     0.705330000000    -0.00471491 
C216     C      0.954430000000     0.381760000000     0.703710000000     0.170192   
C217     C      0.717140000000     0.883430000000     0.278900000000     0.525798   
C218     C      0.718260000000     0.889790000000     0.395370000000     0.545041   
C219     C      0.862270000000     0.019300000000     0.399010000000     0.541784   
C220     C      0.858590000000     0.887900000000     0.276360000000     0.52017    
C221     C      0.850460000000     0.876850000000     0.395150000000     0.529133   
C222     C      0.859260000000     0.026600000000     0.281670000000     0.539174   
C223     C      0.923770000000     0.803240000000     0.029540000000     0.544232   
C224     C      0.936840000000     0.812670000000     0.147230000000     0.533654   
C225     C      0.074590000000     0.811430000000     0.141860000000     0.536888   
C226     C      0.937110000000     0.671600000000     0.027930000000     0.528851   
C227     C      0.931300000000     0.669420000000     0.144890000000     0.526734   
C228     C      0.066180000000     0.813260000000     0.024090000000     0.525175   
C229     C      0.113580000000     0.791900000000     0.967760000000    -0.00883269 
C230     C      0.106320000000     0.874350000000     0.461670000000    -0.0595876  
C231     C      0.671450000000     0.823210000000     0.952510000000    -0.00415667 
C232     C      0.665520000000     0.907290000000     0.450170000000     0.170559   
C233     C      0.652930000000     0.807320000000     0.234350000000    -0.00973616 
C234     C      0.149810000000     0.892370000000     0.236270000000    -0.0583183  
C235     C      0.140320000000     0.801790000000     0.185560000000    -0.00418125 
C236     C      0.139660000000     0.888420000000     0.186750000000     0.168156   
C237     C      0.855260000000     0.605530000000     0.189620000000    -0.00977311 
C238     C      0.939550000000     0.101190000000     0.186820000000    -0.0587662  
C239     C      0.850150000000     0.592930000000     0.238390000000    -0.00391224 
C240     C      0.936020000000     0.090900000000     0.236290000000     0.16955    
C241     C      0.867750000000     0.121700000000     0.972670000000    -0.00982573 
C242     C      0.956700000000     0.626420000000     0.468760000000    -0.0597953  
C243     C      0.840710000000     0.063780000000     0.957190000000    -0.00439044 
C244     C      0.929120000000     0.067050000000     0.457640000000     0.170504   
C245     C      0.918690000000     0.898400000000     0.451720000000    -0.00977806 
C246     C      0.829210000000     0.815370000000     0.957140000000    -0.0596478  
C247     C      0.944840000000     0.868420000000     0.471060000000    -0.00380555 
C248     C      0.855560000000     0.783760000000     0.972420000000     0.170496   
C249     C      0.839020000000     0.818330000000     0.220830000000    -0.00988965 
C250     C      0.921530000000     0.908080000000     0.215360000000    -0.0618188  
C251     C      0.870650000000     0.792000000000     0.205330000000    -0.0047382  
C252     C      0.954430000000     0.881760000000     0.203710000000     0.170193   
C253     C      0.717140000000     0.883430000000     0.778900000000     0.525801   
C254     C      0.718260000000     0.889790000000     0.895370000000     0.545046   
C255     C      0.862270000000     0.019300000000     0.899010000000     0.541665   
C256     C      0.858590000000     0.887900000000     0.776360000000     0.520178   
C257     C      0.850460000000     0.876850000000     0.895140000000     0.529097   
C258     C      0.859260000000     0.026600000000     0.781670000000     0.539185   
C259     C      0.923770000000     0.803240000000     0.529540000000     0.544295   
C260     C      0.936840000000     0.812670000000     0.647230000000     0.533653   
C261     C      0.074590000000     0.811430000000     0.641860000000     0.53688    
C262     C      0.937110000000     0.671600000000     0.527930000000     0.528788   
C263     C      0.931300000000     0.669420000000     0.644890000000     0.526727   
C264     C      0.066180000000     0.813260000000     0.524090000000     0.525146   
C265     C      0.113580000000     0.791900000000     0.467760000000    -0.00883277 
C266     C      0.106320000000     0.874350000000     0.961670000000    -0.0595874  
C267     C      0.671450000000     0.823210000000     0.452510000000    -0.00415694 
C268     C      0.665520000000     0.907290000000     0.950170000000     0.170559   
C269     C      0.652930000000     0.807320000000     0.734350000000    -0.00973611 
C270     C      0.149810000000     0.892370000000     0.736270000000    -0.0583181  
C271     C      0.140320000000     0.801790000000     0.685560000000    -0.00418142 
C272     C      0.139660000000     0.888420000000     0.686750000000     0.168156   
C273     C      0.855260000000     0.605530000000     0.689630000000    -0.00977644 
C274     C      0.939550000000     0.101190000000     0.686820000000    -0.0587666  
C275     C      0.850150000000     0.592930000000     0.738390000000    -0.00390883 
C276     C      0.936020000000     0.090900000000     0.736290000000     0.169551   
C277     C      0.867750000000     0.121700000000     0.472670000000    -0.00981784 
C278     C      0.956700000000     0.626420000000     0.968770000000    -0.0597518  
C279     C      0.840710000000     0.063780000000     0.457190000000    -0.00438555 
C280     C      0.929120000000     0.067050000000     0.957640000000     0.170483   
C281     C      0.918690000000     0.898400000000     0.951710000000    -0.00976323 
C282     C      0.829210000000     0.815370000000     0.457140000000    -0.0596611  
C283     C      0.944840000000     0.868420000000     0.971060000000    -0.00383116 
C284     C      0.855560000000     0.783760000000     0.472430000000     0.170586   
C285     C      0.839020000000     0.818330000000     0.720830000000    -0.00988896 
C286     C      0.921530000000     0.908080000000     0.715360000000    -0.0618176  
C287     C      0.870650000000     0.792000000000     0.705330000000    -0.00473842 
C288     C      0.954430000000     0.881760000000     0.703710000000     0.170193   
Fe1      Fe     0.280410000000     0.466320000000     0.337690000000     1.36615    
Fe2      Fe     0.377670000000     0.461520000000     0.338200000000     1.37103    
Fe3      Fe     0.275780000000     0.363720000000     0.336060000000     1.3572     
Fe4      Fe     0.509820000000     0.330280000000     0.085270000000     1.36992    
Fe5      Fe     0.513890000000     0.232560000000     0.086040000000     1.35996    
Fe6      Fe     0.411730000000     0.228570000000     0.088200000000     1.36452    
Fe7      Fe     0.280410000000     0.466320000000     0.837690000000     1.36621    
Fe8      Fe     0.377670000000     0.461520000000     0.838200000000     1.3711     
Fe9      Fe     0.275780000000     0.363720000000     0.836060000000     1.3572     
Fe10     Fe     0.509820000000     0.330280000000     0.585270000000     1.36992    
Fe11     Fe     0.513890000000     0.232560000000     0.586040000000     1.35981    
Fe12     Fe     0.411730000000     0.228570000000     0.588200000000     1.36451    
Fe13     Fe     0.280410000000     0.966320000000     0.337690000000     1.36607    
Fe14     Fe     0.377670000000     0.961510000000     0.338200000000     1.37074    
Fe15     Fe     0.275790000000     0.863720000000     0.336060000000     1.3572     
Fe16     Fe     0.509820000000     0.830280000000     0.085270000000     1.36988    
Fe17     Fe     0.513890000000     0.732560000000     0.086040000000     1.35993    
Fe18     Fe     0.411730000000     0.728570000000     0.088200000000     1.36455    
Fe19     Fe     0.280410000000     0.966320000000     0.837690000000     1.36612    
Fe20     Fe     0.377670000000     0.961510000000     0.838200000000     1.37081    
Fe21     Fe     0.275790000000     0.863720000000     0.836060000000     1.35719    
Fe22     Fe     0.509820000000     0.830280000000     0.585270000000     1.36987    
Fe23     Fe     0.513890000000     0.732560000000     0.586040000000     1.35978    
Fe24     Fe     0.411730000000     0.728570000000     0.588200000000     1.36454    
Fe25     Fe     0.780410000000     0.466320000000     0.337690000000     1.36625    
Fe26     Fe     0.877670000000     0.461520000000     0.338200000000     1.37125    
Fe27     Fe     0.775790000000     0.363720000000     0.336060000000     1.35735    
Fe28     Fe     0.009820000000     0.330280000000     0.085270000000     1.36246    
Fe29     Fe     0.013890000000     0.232560000000     0.086040000000     1.35242    
Fe30     Fe     0.911730000000     0.228570000000     0.088200000000     1.36368    
Fe31     Fe     0.780410000000     0.466320000000     0.837690000000     1.36631    
Fe32     Fe     0.877670000000     0.461520000000     0.838200000000     1.37132    
Fe33     Fe     0.775790000000     0.363720000000     0.836060000000     1.35735    
Fe34     Fe     0.009820000000     0.330280000000     0.585270000000     1.36245    
Fe35     Fe     0.013890000000     0.232560000000     0.586040000000     1.35227    
Fe36     Fe     0.911730000000     0.228570000000     0.588200000000     1.36367    
Fe37     Fe     0.780410000000     0.966320000000     0.337690000000     1.36615    
Fe38     Fe     0.877670000000     0.961510000000     0.338200000000     1.37097    
Fe39     Fe     0.775790000000     0.863720000000     0.336060000000     1.35731    
Fe40     Fe     0.009820000000     0.830280000000     0.085270000000     1.3623     
Fe41     Fe     0.013890000000     0.732560000000     0.086040000000     1.35237    
Fe42     Fe     0.911730000000     0.728570000000     0.088200000000     1.3636     
Fe43     Fe     0.780410000000     0.966320000000     0.837690000000     1.36621    
Fe44     Fe     0.877670000000     0.961510000000     0.838200000000     1.37103    
Fe45     Fe     0.775790000000     0.863720000000     0.836060000000     1.35731    
Fe46     Fe     0.009820000000     0.830280000000     0.585270000000     1.3623     
Fe47     Fe     0.013890000000     0.732560000000     0.586040000000     1.35223    
Fe48     Fe     0.911730000000     0.728570000000     0.588200000000     1.36359    
H1       H      0.197390000000     0.334230000000     0.981910000000     0.039462   
H2       H      0.608700000000     0.259950000000     0.990640000000     0.0409591  
H3       H      0.188670000000     0.423610000000     0.480990000000     0.00303922 
H4       H      0.594420000000     0.400110000000     0.479690000000     0.0541408  
H5       H      0.180390000000     0.296830000000     0.932170000000     0.0404959  
H6       H      0.588250000000     0.272130000000     0.938720000000     0.0414151  
H7       H      0.582780000000     0.360920000000     0.430900000000     0.0623805  
H8       H      0.676490000000     0.478510000000     0.441150000000     0.137566   
H9       H      0.178500000000     0.317950000000     0.167390000000     0.0372648  
H10      H      0.178560000000     0.289810000000     0.241510000000     0.0385109  
H11      H      0.678760000000     0.410940000000     0.169670000000     0.00462087 
H12      H      0.173280000000     0.435160000000     0.245560000000     0.0558738  
H13      H      0.616150000000     0.258770000000     0.177280000000     0.0375824  
H14      H      0.114950000000     0.283400000000     0.252430000000     0.0398222  
H15      H      0.610930000000     0.374490000000     0.253610000000     0.0643906  
H16      H      0.631590000000     0.450010000000     0.175450000000     0.136554   
H17      H      0.366950000000     0.131190000000     0.256580000000     0.0372301  
H18      H      0.338140000000     0.131590000000     0.182750000000     0.0387216  
H19      H      0.459200000000     0.629930000000     0.253400000000     0.00524519 
H20      H      0.482230000000     0.624220000000     0.177230000000     0.0550955  
H21      H      0.307230000000     0.069200000000     0.246990000000     0.037637   
H22      H      0.330850000000     0.067580000000     0.171600000000     0.039767   
H23      H      0.421030000000     0.562290000000     0.169410000000     0.0628994  
H24      H      0.496980000000     0.581630000000     0.246910000000     0.13738    
H25      H      0.324820000000     0.537730000000     0.986460000000     0.0398004  
H26      H      0.340600000000     0.626810000000     0.995240000000     0.043641   
H27      H      0.419820000000     0.543910000000     0.488740000000     0.00289498 
H28      H      0.493320000000     0.137120000000     0.487910000000     0.0533678  
H29      H      0.306040000000     0.555430000000     0.936250000000     0.0434585  
H30      H      0.374050000000     0.647340000000     0.943680000000     0.0424983  
H31      H      0.468790000000     0.149850000000     0.437890000000     0.0629897  
H32      H      0.487640000000     0.052840000000     0.451920000000     0.137591   
H33      H      0.462010000000     0.356630000000     0.443670000000     0.0397134  
H34      H      0.446710000000     0.428880000000     0.428300000000     0.0453263  
H35      H      0.364430000000     0.266480000000     0.943180000000     0.00294803 
H36      H      0.292930000000     0.288400000000     0.938010000000     0.0529743  
H37      H      0.478630000000     0.396090000000     0.492230000000     0.0415423  
H38      H      0.411930000000     0.420030000000     0.478710000000     0.044445   
H39      H      0.316680000000     0.329360000000     0.986270000000     0.0633752  
H40      H      0.295670000000     0.212440000000     0.981760000000     0.137395   
H41      H      0.381750000000     0.277040000000     0.234660000000     0.0395253  
H42      H      0.307300000000     0.290990000000     0.243720000000     0.0407511  
H43      H      0.470180000000     0.374250000000     0.234550000000     0.00713458 
H44      H      0.447330000000     0.445470000000     0.233670000000     0.0649497  
H45      H      0.344350000000     0.256690000000     0.184970000000     0.0416051  
H46      H      0.319000000000     0.323740000000     0.191890000000     0.0425615  
H47      H      0.408690000000     0.418890000000     0.184610000000     0.0672722  
H48      H      0.525510000000     0.442550000000     0.195880000000     0.14467    
H49      H      0.197390000000     0.334230000000     0.481910000000     0.0394657  
H50      H      0.608700000000     0.259950000000     0.490640000000     0.0409668  
H51      H      0.188670000000     0.423610000000     0.980990000000     0.00303488 
H52      H      0.594420000000     0.400110000000     0.979690000000     0.0541342  
H53      H      0.180390000000     0.296830000000     0.432170000000     0.0404963  
H54      H      0.588250000000     0.272130000000     0.438720000000     0.0414178  
H55      H      0.582780000000     0.360920000000     0.930900000000     0.062379   
H56      H      0.676490000000     0.478510000000     0.941150000000     0.137564   
H57      H      0.178500000000     0.317950000000     0.667390000000     0.037263   
H58      H      0.178560000000     0.289810000000     0.741510000000     0.0385105  
H59      H      0.678760000000     0.410940000000     0.669670000000     0.00461902 
H60      H      0.173280000000     0.435160000000     0.745560000000     0.0558735  
H61      H      0.616150000000     0.258770000000     0.677280000000     0.0375816  
H62      H      0.114950000000     0.283400000000     0.752430000000     0.0398224  
H63      H      0.610930000000     0.374490000000     0.753610000000     0.0643909  
H64      H      0.631590000000     0.450010000000     0.675450000000     0.136553   
H65      H      0.366950000000     0.131190000000     0.756580000000     0.0372314  
H66      H      0.338140000000     0.131590000000     0.682740000000     0.0387217  
H67      H      0.459200000000     0.629930000000     0.753400000000     0.00524597 
H68      H      0.482230000000     0.624220000000     0.677230000000     0.0550944  
H69      H      0.307230000000     0.069200000000     0.746990000000     0.0376365  
H70      H      0.330850000000     0.067580000000     0.671610000000     0.0397667  
H71      H      0.421030000000     0.562290000000     0.669410000000     0.0628969  
H72      H      0.496980000000     0.581630000000     0.746910000000     0.13738    
H73      H      0.324820000000     0.537730000000     0.486460000000     0.0398035  
H74      H      0.340600000000     0.626810000000     0.495250000000     0.0436498  
H75      H      0.419820000000     0.543910000000     0.988740000000     0.00289671 
H76      H      0.493320000000     0.137120000000     0.987910000000     0.0533527  
H77      H      0.306040000000     0.555430000000     0.436250000000     0.0434651  
H78      H      0.374050000000     0.647340000000     0.443680000000     0.0425004  
H79      H      0.468790000000     0.149850000000     0.937890000000     0.0629642  
H80      H      0.487640000000     0.052840000000     0.951920000000     0.137587   
H81      H      0.462010000000     0.356630000000     0.943680000000     0.0397228  
H82      H      0.446710000000     0.428880000000     0.928300000000     0.0453188  
H83      H      0.364430000000     0.266480000000     0.443180000000     0.00294648 
H84      H      0.292930000000     0.288400000000     0.438010000000     0.0529763  
H85      H      0.478630000000     0.396090000000     0.992230000000     0.0415371  
H86      H      0.411930000000     0.420030000000     0.978710000000     0.0444347  
H87      H      0.316680000000     0.329360000000     0.486270000000     0.0633806  
H88      H      0.295670000000     0.212440000000     0.481760000000     0.137427   
H89      H      0.381750000000     0.277040000000     0.734660000000     0.0395259  
H90      H      0.307300000000     0.290990000000     0.743720000000     0.0407506  
H91      H      0.470180000000     0.374250000000     0.734550000000     0.00713558 
H92      H      0.447330000000     0.445470000000     0.733670000000     0.0649501  
H93      H      0.344350000000     0.256690000000     0.684970000000     0.0416045  
H94      H      0.319000000000     0.323740000000     0.691890000000     0.0425599  
H95      H      0.408690000000     0.418890000000     0.684610000000     0.0672702  
H96      H      0.525510000000     0.442550000000     0.695880000000     0.14467    
H97      H      0.197390000000     0.834230000000     0.981910000000     0.0394468  
H98      H      0.608700000000     0.759950000000     0.990640000000     0.0409475  
H99      H      0.188670000000     0.923610000000     0.480990000000     0.00299298 
H100     H      0.594420000000     0.900110000000     0.479690000000     0.0541263  
H101     H      0.180390000000     0.796830000000     0.932170000000     0.0404841  
H102     H      0.588250000000     0.772130000000     0.938720000000     0.0414084  
H103     H      0.582780000000     0.860920000000     0.430900000000     0.0623788  
H104     H      0.676500000000     0.978510000000     0.441150000000     0.137548   
H105     H      0.178500000000     0.817940000000     0.167390000000     0.0372437  
H106     H      0.178560000000     0.789820000000     0.241510000000     0.0385185  
H107     H      0.678760000000     0.910940000000     0.169670000000     0.00461131 
H108     H      0.173280000000     0.935160000000     0.245560000000     0.0558577  
H109     H      0.616150000000     0.758770000000     0.177280000000     0.0375687  
H110     H      0.114950000000     0.783400000000     0.252430000000     0.0398236  
H111     H      0.610940000000     0.874490000000     0.253610000000     0.0643938  
H112     H      0.631590000000     0.950020000000     0.175450000000     0.136351   
H113     H      0.366950000000     0.631190000000     0.256580000000     0.0372273  
H114     H      0.338140000000     0.631590000000     0.182750000000     0.038692   
H115     H      0.459200000000     0.129940000000     0.253400000000     0.00526115 
H116     H      0.482230000000     0.124220000000     0.177230000000     0.0551163  
H117     H      0.307230000000     0.569200000000     0.246990000000     0.0375825  
H118     H      0.330850000000     0.567580000000     0.171600000000     0.0397108  
H119     H      0.421040000000     0.062290000000     0.169410000000     0.062941   
H120     H      0.496980000000     0.081630000000     0.246910000000     0.137402   
H121     H      0.324820000000     0.037730000000     0.986460000000     0.0398568  
H122     H      0.340600000000     0.126810000000     0.995240000000     0.043659   
H123     H      0.419820000000     0.043910000000     0.488740000000     0.00294255 
H124     H      0.493320000000     0.637120000000     0.487910000000     0.0533894  
H125     H      0.306040000000     0.055430000000     0.936250000000     0.0435007  
H126     H      0.374050000000     0.147340000000     0.943680000000     0.0425013  
H127     H      0.468790000000     0.649850000000     0.437890000000     0.0630082  
H128     H      0.487640000000     0.552840000000     0.451920000000     0.13755    
H129     H      0.462010000000     0.856630000000     0.443670000000     0.0396973  
H130     H      0.446710000000     0.928880000000     0.428300000000     0.0453066  
H131     H      0.364430000000     0.766480000000     0.943180000000     0.00294897 
H132     H      0.292930000000     0.788410000000     0.938010000000     0.0529611  
H133     H      0.478630000000     0.896090000000     0.492230000000     0.0415104  
H134     H      0.411930000000     0.920030000000     0.478710000000     0.0444204  
H135     H      0.316680000000     0.829360000000     0.986270000000     0.0633552  
H136     H      0.295670000000     0.712440000000     0.981760000000     0.137378   
H137     H      0.381750000000     0.777050000000     0.234660000000     0.0395308  
H138     H      0.307300000000     0.790990000000     0.243720000000     0.0407375  
H139     H      0.470180000000     0.874250000000     0.234550000000     0.00712708 
H140     H      0.447330000000     0.945470000000     0.233670000000     0.064908   
H141     H      0.344350000000     0.756690000000     0.184970000000     0.0416039  
H142     H      0.319000000000     0.823740000000     0.191890000000     0.0425453  
H143     H      0.408690000000     0.918890000000     0.184610000000     0.0672413  
H144     H      0.525510000000     0.942550000000     0.195880000000     0.144605   
H145     H      0.197390000000     0.834230000000     0.481910000000     0.0394505  
H146     H      0.608700000000     0.759950000000     0.490640000000     0.0409553  
H147     H      0.188670000000     0.923610000000     0.980990000000     0.00298864 
H148     H      0.594420000000     0.900110000000     0.979690000000     0.0541197  
H149     H      0.180390000000     0.796830000000     0.432170000000     0.0404845  
H150     H      0.588250000000     0.772130000000     0.438720000000     0.0414111  
H151     H      0.582780000000     0.860920000000     0.930900000000     0.0623773  
H152     H      0.676500000000     0.978510000000     0.941150000000     0.137545   
H153     H      0.178500000000     0.817940000000     0.667390000000     0.0372419  
H154     H      0.178560000000     0.789820000000     0.741510000000     0.0385181  
H155     H      0.678760000000     0.910940000000     0.669670000000     0.00460946 
H156     H      0.173280000000     0.935160000000     0.745560000000     0.0558574  
H157     H      0.616150000000     0.758770000000     0.677280000000     0.0375679  
H158     H      0.114950000000     0.783400000000     0.752430000000     0.0398238  
H159     H      0.610940000000     0.874490000000     0.753610000000     0.0643941  
H160     H      0.631590000000     0.950020000000     0.675450000000     0.136349   
H161     H      0.366950000000     0.631190000000     0.756580000000     0.0372286  
H162     H      0.338140000000     0.631590000000     0.682740000000     0.038692   
H163     H      0.459200000000     0.129940000000     0.753400000000     0.00526193 
H164     H      0.482230000000     0.124220000000     0.677230000000     0.0551153  
H165     H      0.307230000000     0.569200000000     0.746990000000     0.0375819  
H166     H      0.330850000000     0.567580000000     0.671610000000     0.0397105  
H167     H      0.421040000000     0.062290000000     0.669410000000     0.0629384  
H168     H      0.496980000000     0.081630000000     0.746910000000     0.137402   
H169     H      0.324820000000     0.037730000000     0.486460000000     0.0398598  
H170     H      0.340600000000     0.126810000000     0.495250000000     0.0436677  
H171     H      0.419820000000     0.043910000000     0.988740000000     0.00294428 
H172     H      0.493320000000     0.637120000000     0.987910000000     0.0533743  
H173     H      0.306040000000     0.055430000000     0.436250000000     0.0435073  
H174     H      0.374050000000     0.147340000000     0.443680000000     0.0425033  
H175     H      0.468790000000     0.649850000000     0.937890000000     0.0629826  
H176     H      0.487640000000     0.552840000000     0.951920000000     0.137546   
H177     H      0.462010000000     0.856630000000     0.943680000000     0.0397067  
H178     H      0.446710000000     0.928880000000     0.928300000000     0.0452991  
H179     H      0.364430000000     0.766480000000     0.443180000000     0.00294741 
H180     H      0.292930000000     0.788410000000     0.438010000000     0.0529631  
H181     H      0.478630000000     0.896090000000     0.992230000000     0.0415053  
H182     H      0.411930000000     0.920030000000     0.978710000000     0.0444101  
H183     H      0.316680000000     0.829360000000     0.486270000000     0.0633607  
H184     H      0.295670000000     0.712440000000     0.481760000000     0.137411   
H185     H      0.381750000000     0.777050000000     0.734660000000     0.0395315  
H186     H      0.307300000000     0.790990000000     0.743720000000     0.040737   
H187     H      0.470180000000     0.874250000000     0.734550000000     0.00712809 
H188     H      0.447330000000     0.945470000000     0.733670000000     0.0649083  
H189     H      0.344350000000     0.756690000000     0.684970000000     0.0416033  
H190     H      0.319000000000     0.823740000000     0.691890000000     0.0425437  
H191     H      0.408690000000     0.918890000000     0.684610000000     0.0672393  
H192     H      0.525510000000     0.942550000000     0.695880000000     0.144605   
H193     H      0.697390000000     0.334230000000     0.981910000000     0.0394841  
H194     H      0.108700000000     0.259950000000     0.990640000000     0.040445   
H195     H      0.688670000000     0.423610000000     0.480990000000     0.00305649 
H196     H      0.094420000000     0.400110000000     0.479690000000     0.0536239  
H197     H      0.680400000000     0.296830000000     0.932170000000     0.0406794  
H198     H      0.088250000000     0.272130000000     0.938720000000     0.0406925  
H199     H      0.082780000000     0.360920000000     0.430900000000     0.0617018  
H200     H      0.176500000000     0.478510000000     0.441150000000     0.137362   
H201     H      0.678500000000     0.317950000000     0.167390000000     0.0372914  
H202     H      0.678560000000     0.289810000000     0.241510000000     0.0387356  
H203     H      0.178760000000     0.410940000000     0.169670000000     0.00463803 
H204     H      0.673280000000     0.435160000000     0.245560000000     0.056069   
H205     H      0.116150000000     0.258770000000     0.177280000000     0.037179   
H206     H      0.614950000000     0.283400000000     0.252430000000     0.0403985  
H207     H      0.110930000000     0.374490000000     0.253610000000     0.0638345  
H208     H      0.131590000000     0.450010000000     0.175450000000     0.136341   
H209     H      0.866950000000     0.131190000000     0.256580000000     0.0374346  
H210     H      0.838150000000     0.131590000000     0.182750000000     0.0388376  
H211     H      0.959200000000     0.629930000000     0.253400000000     0.00571999 
H212     H      0.982230000000     0.624220000000     0.177230000000     0.0558029  
H213     H      0.807230000000     0.069200000000     0.246990000000     0.0377329  
H214     H      0.830850000000     0.067580000000     0.171600000000     0.0398176  
H215     H      0.921030000000     0.562290000000     0.169410000000     0.0630887  
H216     H      0.996980000000     0.581630000000     0.246910000000     0.138092   
H217     H      0.824810000000     0.537730000000     0.986460000000     0.0398215  
H218     H      0.840600000000     0.626810000000     0.995240000000     0.0437696  
H219     H      0.919820000000     0.543910000000     0.488740000000     0.00301648 
H220     H      0.993320000000     0.137120000000     0.487910000000     0.0541143  
H221     H      0.806040000000     0.555430000000     0.936250000000     0.0435224  
H222     H      0.874050000000     0.647340000000     0.943680000000     0.0427328  
H223     H      0.968790000000     0.149850000000     0.437890000000     0.0636025  
H224     H      0.987640000000     0.052840000000     0.451920000000     0.138121   
H225     H      0.962010000000     0.356630000000     0.443670000000     0.0404284  
H226     H      0.946710000000     0.428880000000     0.428300000000     0.0456786  
H227     H      0.864430000000     0.266480000000     0.943180000000     0.00313915 
H228     H      0.792930000000     0.288400000000     0.938010000000     0.0530886  
H229     H      0.978630000000     0.396090000000     0.492230000000     0.042341   
H230     H      0.911930000000     0.420030000000     0.478710000000     0.0445729  
H231     H      0.816680000000     0.329360000000     0.986270000000     0.0634216  
H232     H      0.795670000000     0.212440000000     0.981760000000     0.137543   
H233     H      0.881750000000     0.277040000000     0.234660000000     0.0397728  
H234     H      0.807300000000     0.290990000000     0.243720000000     0.0408571  
H235     H      0.970180000000     0.374250000000     0.234550000000     0.00807816 
H236     H      0.947320000000     0.445470000000     0.233670000000     0.065354   
H237     H      0.844350000000     0.256690000000     0.184970000000     0.0417171  
H238     H      0.819000000000     0.323740000000     0.191890000000     0.0426024  
H239     H      0.908690000000     0.418890000000     0.184610000000     0.0673314  
H240     H      0.025510000000     0.442550000000     0.195880000000     0.141422   
H241     H      0.697390000000     0.334230000000     0.481910000000     0.0394878  
H242     H      0.108700000000     0.259950000000     0.490640000000     0.0404527  
H243     H      0.688670000000     0.423610000000     0.980990000000     0.0030521  
H244     H      0.094420000000     0.400110000000     0.979690000000     0.0536174  
H245     H      0.680400000000     0.296830000000     0.432170000000     0.0406798  
H246     H      0.088250000000     0.272130000000     0.438720000000     0.0406951  
H247     H      0.082780000000     0.360920000000     0.930900000000     0.0617004  
H248     H      0.176500000000     0.478510000000     0.941150000000     0.13736    
H249     H      0.678500000000     0.317950000000     0.667390000000     0.0372896  
H250     H      0.678560000000     0.289810000000     0.741510000000     0.0387352  
H251     H      0.178760000000     0.410940000000     0.669670000000     0.00463619 
H252     H      0.673280000000     0.435160000000     0.745560000000     0.0560687  
H253     H      0.116150000000     0.258770000000     0.677280000000     0.0371782  
H254     H      0.614950000000     0.283400000000     0.752430000000     0.0403987  
H255     H      0.110930000000     0.374490000000     0.753610000000     0.0638348  
H256     H      0.131590000000     0.450010000000     0.675450000000     0.136339   
H257     H      0.866950000000     0.131190000000     0.756580000000     0.0374358  
H258     H      0.838150000000     0.131590000000     0.682740000000     0.0388377  
H259     H      0.959200000000     0.629930000000     0.753400000000     0.00572074 
H260     H      0.982230000000     0.624220000000     0.677230000000     0.0558018  
H261     H      0.807230000000     0.069200000000     0.746990000000     0.0377323  
H262     H      0.830850000000     0.067580000000     0.671610000000     0.0398172  
H263     H      0.921030000000     0.562290000000     0.669410000000     0.0630861  
H264     H      0.996980000000     0.581630000000     0.746910000000     0.138092   
H265     H      0.824810000000     0.537730000000     0.486460000000     0.0398246  
H266     H      0.840600000000     0.626810000000     0.495250000000     0.0437784  
H267     H      0.919820000000     0.543910000000     0.988740000000     0.00301816 
H268     H      0.993320000000     0.137120000000     0.987910000000     0.0540991  
H269     H      0.806040000000     0.555430000000     0.436250000000     0.0435291  
H270     H      0.874050000000     0.647340000000     0.443680000000     0.0427349  
H271     H      0.968790000000     0.149850000000     0.937890000000     0.0635769  
H272     H      0.987640000000     0.052840000000     0.951920000000     0.138117   
H273     H      0.962010000000     0.356630000000     0.943680000000     0.0404378  
H274     H      0.946710000000     0.428880000000     0.928300000000     0.0456709  
H275     H      0.864430000000     0.266480000000     0.443180000000     0.00313756 
H276     H      0.792930000000     0.288400000000     0.438010000000     0.0530907  
H277     H      0.978630000000     0.396090000000     0.992230000000     0.0423358  
H278     H      0.911930000000     0.420030000000     0.978710000000     0.0445625  
H279     H      0.816680000000     0.329360000000     0.486270000000     0.0634272  
H280     H      0.795670000000     0.212440000000     0.481760000000     0.137575   
H281     H      0.881750000000     0.277040000000     0.734660000000     0.0397734  
H282     H      0.807300000000     0.290990000000     0.743720000000     0.0408566  
H283     H      0.970180000000     0.374250000000     0.734550000000     0.00807913 
H284     H      0.947320000000     0.445470000000     0.733670000000     0.0653543  
H285     H      0.844350000000     0.256690000000     0.684970000000     0.0417164  
H286     H      0.819000000000     0.323740000000     0.691890000000     0.0426008  
H287     H      0.908690000000     0.418890000000     0.684610000000     0.0673294  
H288     H      0.025510000000     0.442550000000     0.695880000000     0.141422   
H289     H      0.697390000000     0.834230000000     0.981910000000     0.0394765  
H290     H      0.108700000000     0.759950000000     0.990640000000     0.0404356  
H291     H      0.688670000000     0.923610000000     0.480990000000     0.00300695 
H292     H      0.094420000000     0.900110000000     0.479690000000     0.0536037  
H293     H      0.680390000000     0.796830000000     0.932170000000     0.040681   
H294     H      0.088250000000     0.772130000000     0.938720000000     0.0406859  
H295     H      0.082780000000     0.860920000000     0.430900000000     0.0616889  
H296     H      0.176500000000     0.978510000000     0.441150000000     0.137314   
H297     H      0.678500000000     0.817940000000     0.167390000000     0.0372707  
H298     H      0.678560000000     0.789820000000     0.241510000000     0.038744   
H299     H      0.178760000000     0.910940000000     0.169670000000     0.0046121  
H300     H      0.673280000000     0.935160000000     0.245560000000     0.0560393  
H301     H      0.116150000000     0.758770000000     0.177280000000     0.0371634  
H302     H      0.614950000000     0.783400000000     0.252430000000     0.0403991  
H303     H      0.110940000000     0.874490000000     0.253610000000     0.0638463  
H304     H      0.131590000000     0.950020000000     0.175450000000     0.136171   
H305     H      0.866950000000     0.631190000000     0.256580000000     0.0374309  
H306     H      0.838150000000     0.631590000000     0.182750000000     0.0388166  
H307     H      0.959200000000     0.129940000000     0.253400000000     0.00573694 
H308     H      0.982230000000     0.124220000000     0.177230000000     0.0558146  
H309     H      0.807230000000     0.569200000000     0.246990000000     0.0376795  
H310     H      0.830860000000     0.567580000000     0.171600000000     0.0397756  
H311     H      0.921040000000     0.062290000000     0.169410000000     0.0631266  
H312     H      0.996980000000     0.081630000000     0.246910000000     0.138115   
H313     H      0.824820000000     0.037730000000     0.986460000000     0.0398798  
H314     H      0.840600000000     0.126810000000     0.995240000000     0.0437846  
H315     H      0.919820000000     0.043910000000     0.488740000000     0.00306179 
H316     H      0.993320000000     0.637120000000     0.487910000000     0.0541357  
H317     H      0.806040000000     0.055430000000     0.936250000000     0.0435629  
H318     H      0.874050000000     0.147340000000     0.943680000000     0.0427351  
H319     H      0.968790000000     0.649850000000     0.437890000000     0.0636197  
H320     H      0.987640000000     0.552840000000     0.451920000000     0.138081   
H321     H      0.962010000000     0.856630000000     0.443670000000     0.0403923  
H322     H      0.946710000000     0.928880000000     0.428300000000     0.045659   
H323     H      0.864430000000     0.766480000000     0.943180000000     0.00313968 
H324     H      0.792930000000     0.788410000000     0.938010000000     0.0530765  
H325     H      0.978630000000     0.896090000000     0.492230000000     0.0422875  
H326     H      0.911930000000     0.920030000000     0.478710000000     0.0445489  
H327     H      0.816680000000     0.829360000000     0.986270000000     0.0634012  
H328     H      0.795670000000     0.712440000000     0.981760000000     0.137528   
H329     H      0.881750000000     0.777050000000     0.234660000000     0.0397773  
H330     H      0.807300000000     0.790990000000     0.243720000000     0.0408469  
H331     H      0.970180000000     0.874250000000     0.234550000000     0.00806782 
H332     H      0.947320000000     0.945470000000     0.233670000000     0.0653031  
H333     H      0.844350000000     0.756690000000     0.184970000000     0.0417198  
H334     H      0.819000000000     0.823740000000     0.191890000000     0.0425901  
H335     H      0.908690000000     0.918890000000     0.184610000000     0.0672919  
H336     H      0.025510000000     0.942550000000     0.195880000000     0.141367   
H337     H      0.697390000000     0.834230000000     0.481910000000     0.0394803  
H338     H      0.108700000000     0.759950000000     0.490640000000     0.0404432  
H339     H      0.688670000000     0.923610000000     0.980990000000     0.00300257 
H340     H      0.094420000000     0.900110000000     0.979690000000     0.0535973  
H341     H      0.680390000000     0.796830000000     0.432170000000     0.0406814  
H342     H      0.088250000000     0.772130000000     0.438720000000     0.0406885  
H343     H      0.082780000000     0.860920000000     0.930900000000     0.0616874  
H344     H      0.176500000000     0.978510000000     0.941150000000     0.137312   
H345     H      0.678500000000     0.817940000000     0.667390000000     0.0372689  
H346     H      0.678560000000     0.789820000000     0.741510000000     0.0387436  
H347     H      0.178760000000     0.910940000000     0.669670000000     0.00461025 
H348     H      0.673280000000     0.935160000000     0.745560000000     0.056039   
H349     H      0.116150000000     0.758770000000     0.677280000000     0.0371626  
H350     H      0.614950000000     0.783400000000     0.752430000000     0.0403992  
H351     H      0.110940000000     0.874490000000     0.753610000000     0.0638466  
H352     H      0.131590000000     0.950020000000     0.675450000000     0.13617    
H353     H      0.866950000000     0.631190000000     0.756580000000     0.0374322  
H354     H      0.838150000000     0.631590000000     0.682740000000     0.0388166  
H355     H      0.959200000000     0.129940000000     0.753400000000     0.0057377  
H356     H      0.982230000000     0.124220000000     0.677230000000     0.0558135  
H357     H      0.807230000000     0.569200000000     0.746990000000     0.037679   
H358     H      0.830860000000     0.567580000000     0.671610000000     0.0397752  
H359     H      0.921040000000     0.062290000000     0.669410000000     0.0631241  
H360     H      0.996980000000     0.081630000000     0.746910000000     0.138115   
H361     H      0.824820000000     0.037730000000     0.486460000000     0.039883   
H362     H      0.840600000000     0.126810000000     0.495250000000     0.0437934  
H363     H      0.919820000000     0.043910000000     0.988740000000     0.00306346 
H364     H      0.993320000000     0.637120000000     0.987910000000     0.0541205  
H365     H      0.806040000000     0.055430000000     0.436250000000     0.0435695  
H366     H      0.874050000000     0.147340000000     0.443680000000     0.0427371  
H367     H      0.968790000000     0.649850000000     0.937890000000     0.0635941  
H368     H      0.987640000000     0.552840000000     0.951920000000     0.138076   
H369     H      0.962010000000     0.856630000000     0.943680000000     0.0404017  
H370     H      0.946710000000     0.928880000000     0.928300000000     0.0456513  
H371     H      0.864430000000     0.766480000000     0.443180000000     0.00313809 
H372     H      0.792930000000     0.788410000000     0.438010000000     0.0530785  
H373     H      0.978630000000     0.896090000000     0.992230000000     0.0422823  
H374     H      0.911930000000     0.920030000000     0.978710000000     0.0445386  
H375     H      0.816680000000     0.829360000000     0.486270000000     0.0634068  
H376     H      0.795670000000     0.712440000000     0.481760000000     0.13756    
H377     H      0.881750000000     0.777050000000     0.734660000000     0.039778   
H378     H      0.807300000000     0.790990000000     0.743720000000     0.0408464  
H379     H      0.970180000000     0.874250000000     0.734550000000     0.0080688  
H380     H      0.947320000000     0.945470000000     0.733670000000     0.0653034  
H381     H      0.844350000000     0.756690000000     0.684970000000     0.0417192  
H382     H      0.819000000000     0.823740000000     0.691890000000     0.0425885  
H383     H      0.908690000000     0.918890000000     0.684610000000     0.0672899  
H384     H      0.025510000000     0.942550000000     0.695880000000     0.141367   
N1       N      0.183120000000     0.372580000000     0.429430000000    -0.204243   
N2       N      0.596590000000     0.327420000000     0.987180000000    -0.181857   
N3       N      0.614150000000     0.332120000000     0.172600000000    -0.201706   
N4       N      0.177150000000     0.363170000000     0.248630000000    -0.181421   
N5       N      0.379990000000     0.566100000000     0.250890000000    -0.202304   
N6       N      0.410870000000     0.129210000000     0.174970000000    -0.18212    
N7       N      0.378470000000     0.551590000000     0.434940000000    -0.203211   
N8       N      0.419880000000     0.138270000000     0.992710000000    -0.182195   
N9       N      0.406430000000     0.319760000000     0.994560000000    -0.20352    
N10      N      0.367020000000     0.361840000000     0.431460000000    -0.181671   
N11      N      0.419970000000     0.329840000000     0.182240000000    -0.20014    
N12      N      0.374020000000     0.370950000000     0.240410000000    -0.178793   
N13      N      0.183120000000     0.372580000000     0.929430000000    -0.204244   
N14      N      0.596590000000     0.327420000000     0.487180000000    -0.181841   
N15      N      0.614150000000     0.332120000000     0.672600000000    -0.201705   
N16      N      0.177150000000     0.363170000000     0.748630000000    -0.181422   
N17      N      0.379990000000     0.566100000000     0.750890000000    -0.202306   
N18      N      0.410870000000     0.129210000000     0.674970000000    -0.18212    
N19      N      0.378470000000     0.551590000000     0.934940000000    -0.203192   
N20      N      0.419880000000     0.138270000000     0.492710000000    -0.182168   
N21      N      0.406430000000     0.319760000000     0.494570000000    -0.20358    
N22      N      0.367020000000     0.361840000000     0.931460000000    -0.181614   
N23      N      0.419970000000     0.329840000000     0.682240000000    -0.20014    
N24      N      0.374020000000     0.370950000000     0.740410000000    -0.178794   
N25      N      0.183120000000     0.872580000000     0.429430000000    -0.204295   
N26      N      0.596590000000     0.827420000000     0.987180000000    -0.181858   
N27      N      0.614150000000     0.832120000000     0.172600000000    -0.201701   
N28      N      0.177150000000     0.863170000000     0.248630000000    -0.181414   
N29      N      0.379990000000     0.066100000000     0.250890000000    -0.202316   
N30      N      0.410870000000     0.629210000000     0.174970000000    -0.182165   
N31      N      0.378470000000     0.051590000000     0.434940000000    -0.203252   
N32      N      0.419880000000     0.638270000000     0.992710000000    -0.18219    
N33      N      0.406430000000     0.819760000000     0.994560000000    -0.203525   
N34      N      0.367020000000     0.861840000000     0.431460000000    -0.18168    
N35      N      0.419970000000     0.829840000000     0.182240000000    -0.200135   
N36      N      0.374010000000     0.870950000000     0.240410000000    -0.178844   
N37      N      0.183120000000     0.872580000000     0.929430000000    -0.204296   
N38      N      0.596590000000     0.827420000000     0.487180000000    -0.181843   
N39      N      0.614150000000     0.832120000000     0.672600000000    -0.2017     
N40      N      0.177150000000     0.863170000000     0.748630000000    -0.181415   
N41      N      0.379990000000     0.066100000000     0.750890000000    -0.202318   
N42      N      0.410870000000     0.629210000000     0.674970000000    -0.182164   
N43      N      0.378470000000     0.051590000000     0.934940000000    -0.203232   
N44      N      0.419880000000     0.638270000000     0.492710000000    -0.182163   
N45      N      0.406430000000     0.819760000000     0.494570000000    -0.203586   
N46      N      0.367020000000     0.861840000000     0.931460000000    -0.181624   
N47      N      0.419970000000     0.829840000000     0.682240000000    -0.200135   
N48      N      0.374010000000     0.870950000000     0.740410000000    -0.178845   
N49      N      0.683130000000     0.372580000000     0.429430000000    -0.204254   
N50      N      0.096590000000     0.327420000000     0.987180000000    -0.181925   
N51      N      0.114150000000     0.332120000000     0.172600000000    -0.201679   
N52      N      0.677150000000     0.363170000000     0.248630000000    -0.181303   
N53      N      0.879990000000     0.566100000000     0.250890000000    -0.202271   
N54      N      0.910870000000     0.129210000000     0.174970000000    -0.18188    
N55      N      0.878470000000     0.551590000000     0.434940000000    -0.203202   
N56      N      0.919880000000     0.138270000000     0.992710000000    -0.181888   
N57      N      0.906430000000     0.319760000000     0.994560000000    -0.20327    
N58      N      0.867020000000     0.361840000000     0.431460000000    -0.181641   
N59      N      0.919970000000     0.329840000000     0.182240000000    -0.199839   
N60      N      0.874010000000     0.370950000000     0.240410000000    -0.178839   
N61      N      0.683130000000     0.372580000000     0.929430000000    -0.204255   
N62      N      0.096590000000     0.327420000000     0.487180000000    -0.18191    
N63      N      0.114150000000     0.332120000000     0.672600000000    -0.201678   
N64      N      0.677150000000     0.363170000000     0.748630000000    -0.181304   
N65      N      0.879990000000     0.566100000000     0.750890000000    -0.202272   
N66      N      0.910870000000     0.129210000000     0.674970000000    -0.18188    
N67      N      0.878470000000     0.551590000000     0.934940000000    -0.203183   
N68      N      0.919880000000     0.138270000000     0.492710000000    -0.181861   
N69      N      0.906430000000     0.319760000000     0.494570000000    -0.203331   
N70      N      0.867020000000     0.361840000000     0.931460000000    -0.181585   
N71      N      0.919970000000     0.329840000000     0.682240000000    -0.199839   
N72      N      0.874010000000     0.370950000000     0.740410000000    -0.17884    
N73      N      0.683120000000     0.872580000000     0.429430000000    -0.204263   
N74      N      0.096590000000     0.827420000000     0.987180000000    -0.181929   
N75      N      0.114150000000     0.832120000000     0.172600000000    -0.201693   
N76      N      0.677150000000     0.863170000000     0.248630000000    -0.181336   
N77      N      0.879990000000     0.066100000000     0.250890000000    -0.202282   
N78      N      0.910870000000     0.629210000000     0.174970000000    -0.181889   
N79      N      0.878470000000     0.051590000000     0.434940000000    -0.203245   
N80      N      0.919880000000     0.638270000000     0.992710000000    -0.18188    
N81      N      0.906430000000     0.819760000000     0.994560000000    -0.203284   
N82      N      0.867020000000     0.861840000000     0.431460000000    -0.181647   
N83      N      0.919970000000     0.829840000000     0.182240000000    -0.199808   
N84      N      0.874010000000     0.870950000000     0.240410000000    -0.178847   
N85      N      0.683120000000     0.872580000000     0.929430000000    -0.204264   
N86      N      0.096590000000     0.827420000000     0.487180000000    -0.181914   
N87      N      0.114150000000     0.832120000000     0.672600000000    -0.201692   
N88      N      0.677150000000     0.863170000000     0.748630000000    -0.181337   
N89      N      0.879990000000     0.066100000000     0.750890000000    -0.202284   
N90      N      0.910870000000     0.629210000000     0.674970000000    -0.181888   
N91      N      0.878470000000     0.051590000000     0.934940000000    -0.203225   
N92      N      0.919880000000     0.638270000000     0.492710000000    -0.181853   
N93      N      0.906430000000     0.819760000000     0.494570000000    -0.203344   
N94      N      0.867020000000     0.861840000000     0.931460000000    -0.18159    
N95      N      0.919970000000     0.829840000000     0.682240000000    -0.199808   
N96      N      0.874010000000     0.870950000000     0.740410000000    -0.178848   
O1       O      0.219900000000     0.356760000000     0.369390000000    -0.504369   
O2       O      0.380220000000     0.436720000000     0.284750000000    -0.498332   
O3       O      0.248640000000     0.438610000000     0.389220000000    -0.500766   
O4       O      0.222920000000     0.420330000000     0.304270000000    -0.497898   
O5       O      0.301860000000     0.358350000000     0.388130000000    -0.512242   
O6       O      0.389410000000     0.521460000000     0.308500000000    -0.486629   
O7       O      0.311050000000     0.430390000000     0.337180000000    -0.871741   
O8       O      0.380280000000     0.488750000000     0.391680000000    -0.497462   
O9       O      0.329820000000     0.520650000000     0.372180000000    -0.500487   
O10      O      0.245630000000     0.362630000000     0.284190000000    -0.509431   
O11      O      0.309810000000     0.497810000000     0.286090000000    -0.508731   
O12      O      0.383590000000     0.410010000000     0.368470000000    -0.501404   
O13      O      0.323450000000     0.354870000000     0.302160000000    -0.495246   
O14      O      0.403500000000     0.276440000000     0.122330000000    -0.494879   
O15      O      0.485990000000     0.200970000000     0.034520000000    -0.513931   
O16      O      0.485530000000     0.333590000000     0.138770000000    -0.483376   
O17      O      0.458410000000     0.336600000000     0.055220000000    -0.502705   
O18      O      0.410960000000     0.198370000000     0.139960000000    -0.510631   
O19      O      0.568250000000     0.281780000000     0.051560000000    -0.500438   
O20      O      0.478300000000     0.263590000000     0.086650000000    -0.871732   
O21      O      0.545510000000     0.261920000000     0.137630000000    -0.507646   
O22      O      0.569710000000     0.341620000000     0.114840000000    -0.486217   
O23      O      0.405830000000     0.254680000000     0.036360000000    -0.500379   
O24      O      0.536460000000     0.332200000000     0.031630000000    -0.510865   
O25      O      0.467850000000     0.174960000000     0.119280000000    -0.502831   
O26      O      0.404320000000     0.172690000000     0.054500000000    -0.499645   
O27      O      0.173090000000     0.449110000000     0.422260000000    -0.280304   
O28      O      0.607630000000     0.410840000000     0.177010000000    -0.267375   
O29      O      0.457750000000     0.558120000000     0.245560000000    -0.272644   
O30      O      0.463600000000     0.557620000000     0.431670000000    -0.278249   
O31      O      0.320220000000     0.242850000000     0.000530000000    -0.279463   
O32      O      0.496750000000     0.416580000000     0.176500000000    -0.271158   
O33      O      0.219900000000     0.356760000000     0.869390000000    -0.504371   
O34      O      0.380220000000     0.436720000000     0.784750000000    -0.498334   
O35      O      0.248640000000     0.438610000000     0.889220000000    -0.500781   
O36      O      0.222920000000     0.420330000000     0.804270000000    -0.497907   
O37      O      0.301860000000     0.358350000000     0.888130000000    -0.512249   
O38      O      0.389410000000     0.521460000000     0.808500000000    -0.486631   
O39      O      0.311050000000     0.430390000000     0.837180000000    -0.871757   
O40      O      0.380280000000     0.488750000000     0.891680000000    -0.497434   
O41      O      0.329820000000     0.520650000000     0.872170000000    -0.500458   
O42      O      0.245630000000     0.362630000000     0.784190000000    -0.509432   
O43      O      0.309810000000     0.497810000000     0.786090000000    -0.508735   
O44      O      0.383590000000     0.410010000000     0.868460000000    -0.501466   
O45      O      0.323450000000     0.354870000000     0.802160000000    -0.495244   
O46      O      0.403500000000     0.276440000000     0.622330000000    -0.494878   
O47      O      0.485990000000     0.200970000000     0.534510000000    -0.513826   
O48      O      0.485530000000     0.333590000000     0.638770000000    -0.483375   
O49      O      0.458410000000     0.336600000000     0.555220000000    -0.502727   
O50      O      0.410960000000     0.198370000000     0.639960000000    -0.51063    
O51      O      0.568250000000     0.281780000000     0.551560000000    -0.500423   
O52      O      0.478300000000     0.263590000000     0.586650000000    -0.871713   
O53      O      0.545510000000     0.261920000000     0.637630000000    -0.507622   
O54      O      0.569710000000     0.341620000000     0.614840000000    -0.486214   
O55      O      0.405830000000     0.254680000000     0.536360000000    -0.500404   
O56      O      0.536460000000     0.332200000000     0.531630000000    -0.510865   
O57      O      0.467850000000     0.174960000000     0.619280000000    -0.502823   
O58      O      0.404320000000     0.172690000000     0.554500000000    -0.499645   
O59      O      0.173090000000     0.449110000000     0.922260000000    -0.280305   
O60      O      0.607630000000     0.410840000000     0.677010000000    -0.267376   
O61      O      0.457750000000     0.558120000000     0.745560000000    -0.272645   
O62      O      0.463600000000     0.557620000000     0.931670000000    -0.278243   
O63      O      0.320220000000     0.242850000000     0.500530000000    -0.279542   
O64      O      0.496750000000     0.416580000000     0.676500000000    -0.27116    
O65      O      0.219900000000     0.856760000000     0.369390000000    -0.504307   
O66      O      0.380220000000     0.936720000000     0.284750000000    -0.498432   
O67      O      0.248640000000     0.938600000000     0.389220000000    -0.500903   
O68      O      0.222920000000     0.920330000000     0.304270000000    -0.497887   
O69      O      0.301860000000     0.858350000000     0.388130000000    -0.512327   
O70      O      0.389410000000     0.021460000000     0.308500000000    -0.486421   
O71      O      0.311050000000     0.930390000000     0.337180000000    -0.871694   
O72      O      0.380280000000     0.988750000000     0.391680000000    -0.497504   
O73      O      0.329820000000     0.020650000000     0.372180000000    -0.500431   
O74      O      0.245630000000     0.862630000000     0.284190000000    -0.509371   
O75      O      0.309810000000     0.997810000000     0.286090000000    -0.508931   
O76      O      0.383590000000     0.910000000000     0.368470000000    -0.501466   
O77      O      0.323450000000     0.854870000000     0.302160000000    -0.495371   
O78      O      0.403500000000     0.776440000000     0.122330000000    -0.494892   
O79      O      0.485990000000     0.700970000000     0.034520000000    -0.513847   
O80      O      0.485530000000     0.833600000000     0.138770000000    -0.483356   
O81      O      0.458410000000     0.836600000000     0.055220000000    -0.502708   
O82      O      0.410960000000     0.698370000000     0.139960000000    -0.510683   
O83      O      0.568250000000     0.781780000000     0.051560000000    -0.500441   
O84      O      0.478300000000     0.763590000000     0.086650000000    -0.871728   
O85      O      0.545510000000     0.761920000000     0.137630000000    -0.507652   
O86      O      0.569710000000     0.841620000000     0.114840000000    -0.486226   
O87      O      0.405830000000     0.754680000000     0.036360000000    -0.500387   
O88      O      0.536460000000     0.832200000000     0.031630000000    -0.510864   
O89      O      0.467840000000     0.674960000000     0.119280000000    -0.502926   
O90      O      0.404320000000     0.672690000000     0.054500000000    -0.499724   
O91      O      0.173090000000     0.949110000000     0.422260000000    -0.280333   
O92      O      0.607620000000     0.910830000000     0.177010000000    -0.267186   
O93      O      0.457750000000     0.058120000000     0.245560000000    -0.27259    
O94      O      0.463600000000     0.057620000000     0.431670000000    -0.278198   
O95      O      0.320220000000     0.742850000000     0.000530000000    -0.279466   
O96      O      0.496750000000     0.916570000000     0.176500000000    -0.271133   
O97      O      0.219900000000     0.856760000000     0.869390000000    -0.504309   
O98      O      0.380220000000     0.936720000000     0.784750000000    -0.498435   
O99      O      0.248640000000     0.938600000000     0.889220000000    -0.500918   
O100     O      0.222920000000     0.920330000000     0.804270000000    -0.497896   
O101     O      0.301860000000     0.858350000000     0.888130000000    -0.512334   
O102     O      0.389410000000     0.021460000000     0.808500000000    -0.486422   
O103     O      0.311050000000     0.930390000000     0.837180000000    -0.871711   
O104     O      0.380280000000     0.988750000000     0.891680000000    -0.497476   
O105     O      0.329820000000     0.020650000000     0.872170000000    -0.500402   
O106     O      0.245630000000     0.862630000000     0.784190000000    -0.509372   
O107     O      0.309810000000     0.997810000000     0.786090000000    -0.508935   
O108     O      0.383590000000     0.910000000000     0.868460000000    -0.501528   
O109     O      0.323450000000     0.854870000000     0.802160000000    -0.495368   
O110     O      0.403500000000     0.776440000000     0.622330000000    -0.494892   
O111     O      0.485990000000     0.700970000000     0.534510000000    -0.513742   
O112     O      0.485530000000     0.833600000000     0.638770000000    -0.483355   
O113     O      0.458410000000     0.836600000000     0.555220000000    -0.502729   
O114     O      0.410960000000     0.698370000000     0.639960000000    -0.510681   
O115     O      0.568250000000     0.781780000000     0.551560000000    -0.500427   
O116     O      0.478300000000     0.763590000000     0.586650000000    -0.871709   
O117     O      0.545510000000     0.761920000000     0.637630000000    -0.507628   
O118     O      0.569710000000     0.841620000000     0.614840000000    -0.486222   
O119     O      0.405830000000     0.754680000000     0.536360000000    -0.500412   
O120     O      0.536460000000     0.832200000000     0.531630000000    -0.510864   
O121     O      0.467840000000     0.674960000000     0.619280000000    -0.502918   
O122     O      0.404320000000     0.672690000000     0.554500000000    -0.499724   
O123     O      0.173090000000     0.949110000000     0.922260000000    -0.280334   
O124     O      0.607620000000     0.910830000000     0.677010000000    -0.267186   
O125     O      0.457750000000     0.058120000000     0.745560000000    -0.27259    
O126     O      0.463600000000     0.057620000000     0.931670000000    -0.278192   
O127     O      0.320220000000     0.742850000000     0.500530000000    -0.279545   
O128     O      0.496750000000     0.916570000000     0.676500000000    -0.271135   
O129     O      0.719900000000     0.356760000000     0.369390000000    -0.50416    
O130     O      0.880220000000     0.436720000000     0.284750000000    -0.498284   
O131     O      0.748640000000     0.438610000000     0.389220000000    -0.500758   
O132     O      0.722920000000     0.420330000000     0.304270000000    -0.497732   
O133     O      0.801860000000     0.358350000000     0.388130000000    -0.51228    
O134     O      0.889410000000     0.521460000000     0.308500000000    -0.48648    
O135     O      0.811050000000     0.430390000000     0.337180000000    -0.871858   
O136     O      0.880280000000     0.488750000000     0.391680000000    -0.497412   
O137     O      0.829820000000     0.520650000000     0.372180000000    -0.500437   
O138     O      0.745640000000     0.362630000000     0.284190000000    -0.509245   
O139     O      0.809810000000     0.497810000000     0.286090000000    -0.508715   
O140     O      0.883590000000     0.410010000000     0.368470000000    -0.501251   
O141     O      0.823450000000     0.354870000000     0.302160000000    -0.495298   
O142     O      0.903510000000     0.276440000000     0.122330000000    -0.494452   
O143     O      0.985990000000     0.200970000000     0.034520000000    -0.511004   
O144     O      0.985530000000     0.333590000000     0.138770000000    -0.480511   
O145     O      0.958410000000     0.336600000000     0.055220000000    -0.50037    
O146     O      0.910960000000     0.198370000000     0.139960000000    -0.510024   
O147     O      0.068250000000     0.281780000000     0.051560000000    -0.499772   
O148     O      0.978300000000     0.263590000000     0.086650000000    -0.866924   
O149     O      0.045510000000     0.261920000000     0.137630000000    -0.507581   
O150     O      0.069700000000     0.341620000000     0.114840000000    -0.485546   
O151     O      0.905830000000     0.254680000000     0.036360000000    -0.4998     
O152     O      0.036460000000     0.332200000000     0.031630000000    -0.510876   
O153     O      0.967850000000     0.174960000000     0.119280000000    -0.500403   
O154     O      0.904320000000     0.172690000000     0.054500000000    -0.499115   
O155     O      0.673090000000     0.449110000000     0.422260000000    -0.280052   
O156     O      0.107620000000     0.410840000000     0.177010000000    -0.267888   
O157     O      0.957750000000     0.558120000000     0.245560000000    -0.272508   
O158     O      0.963600000000     0.557620000000     0.431670000000    -0.277963   
O159     O      0.820220000000     0.242850000000     0.000530000000    -0.279391   
O160     O      0.996750000000     0.416580000000     0.176500000000    -0.267699   
O161     O      0.719900000000     0.356760000000     0.869390000000    -0.504162   
O162     O      0.880220000000     0.436720000000     0.784750000000    -0.498286   
O163     O      0.748640000000     0.438610000000     0.889220000000    -0.500773   
O164     O      0.722920000000     0.420330000000     0.804270000000    -0.497742   
O165     O      0.801860000000     0.358350000000     0.888130000000    -0.512287   
O166     O      0.889410000000     0.521460000000     0.808500000000    -0.486482   
O167     O      0.811050000000     0.430390000000     0.837180000000    -0.871874   
O168     O      0.880280000000     0.488750000000     0.891680000000    -0.497385   
O169     O      0.829820000000     0.520650000000     0.872170000000    -0.500408   
O170     O      0.745640000000     0.362630000000     0.784190000000    -0.509246   
O171     O      0.809810000000     0.497810000000     0.786090000000    -0.508719   
O172     O      0.883590000000     0.410010000000     0.868460000000    -0.501312   
O173     O      0.823450000000     0.354870000000     0.802160000000    -0.495296   
O174     O      0.903510000000     0.276440000000     0.622330000000    -0.494452   
O175     O      0.985990000000     0.200970000000     0.534510000000    -0.5109     
O176     O      0.985530000000     0.333590000000     0.638770000000    -0.48051    
O177     O      0.958410000000     0.336600000000     0.555220000000    -0.500392   
O178     O      0.910960000000     0.198370000000     0.639960000000    -0.510022   
O179     O      0.068250000000     0.281780000000     0.551560000000    -0.499758   
O180     O      0.978300000000     0.263590000000     0.586650000000    -0.866905   
O181     O      0.045510000000     0.261920000000     0.637630000000    -0.507557   
O182     O      0.069700000000     0.341620000000     0.614840000000    -0.485543   
O183     O      0.905830000000     0.254680000000     0.536360000000    -0.499825   
O184     O      0.036460000000     0.332200000000     0.531630000000    -0.510876   
O185     O      0.967850000000     0.174960000000     0.619280000000    -0.500396   
O186     O      0.904320000000     0.172690000000     0.554500000000    -0.499115   
O187     O      0.673090000000     0.449110000000     0.922260000000    -0.280053   
O188     O      0.107620000000     0.410840000000     0.677010000000    -0.267888   
O189     O      0.957750000000     0.558120000000     0.745560000000    -0.272508   
O190     O      0.963600000000     0.557620000000     0.931670000000    -0.277957   
O191     O      0.820220000000     0.242850000000     0.500530000000    -0.279471   
O192     O      0.996750000000     0.416580000000     0.676500000000    -0.2677     
O193     O      0.719900000000     0.856760000000     0.369390000000    -0.504181   
O194     O      0.880220000000     0.936720000000     0.284750000000    -0.498361   
O195     O      0.748640000000     0.938600000000     0.389220000000    -0.500893   
O196     O      0.722920000000     0.920330000000     0.304270000000    -0.497784   
O197     O      0.801860000000     0.858350000000     0.388130000000    -0.512301   
O198     O      0.889410000000     0.021460000000     0.308500000000    -0.486273   
O199     O      0.811050000000     0.930390000000     0.337180000000    -0.871803   
O200     O      0.880280000000     0.988750000000     0.391680000000    -0.497464   
O201     O      0.829820000000     0.020650000000     0.372180000000    -0.500383   
O202     O      0.745630000000     0.862630000000     0.284190000000    -0.509337   
O203     O      0.809810000000     0.997810000000     0.286090000000    -0.508922   
O204     O      0.883590000000     0.910000000000     0.368470000000    -0.501301   
O205     O      0.823450000000     0.854870000000     0.302160000000    -0.495309   
O206     O      0.903500000000     0.776440000000     0.122330000000    -0.494341   
O207     O      0.985990000000     0.700970000000     0.034520000000    -0.510917   
O208     O      0.985530000000     0.833600000000     0.138770000000    -0.480474   
O209     O      0.958410000000     0.836600000000     0.055220000000    -0.500361   
O210     O      0.910960000000     0.698370000000     0.139960000000    -0.510029   
O211     O      0.068250000000     0.781780000000     0.051560000000    -0.499769   
O212     O      0.978300000000     0.763590000000     0.086650000000    -0.866904   
O213     O      0.045510000000     0.761920000000     0.137630000000    -0.507601   
O214     O      0.069710000000     0.841620000000     0.114840000000    -0.485516   
O215     O      0.905830000000     0.754680000000     0.036360000000    -0.49979    
O216     O      0.036460000000     0.832200000000     0.031630000000    -0.510858   
O217     O      0.967850000000     0.674960000000     0.119280000000    -0.500402   
O218     O      0.904320000000     0.672690000000     0.054500000000    -0.499182   
O219     O      0.673090000000     0.949110000000     0.422260000000    -0.280127   
O220     O      0.107620000000     0.910830000000     0.177010000000    -0.267776   
O221     O      0.957750000000     0.058120000000     0.245560000000    -0.272453   
O222     O      0.963600000000     0.057620000000     0.431670000000    -0.27791    
O223     O      0.820220000000     0.742850000000     0.000530000000    -0.279392   
O224     O      0.996750000000     0.916570000000     0.176500000000    -0.267691   
O225     O      0.719900000000     0.856760000000     0.869390000000    -0.504183   
O226     O      0.880220000000     0.936720000000     0.784750000000    -0.498364   
O227     O      0.748640000000     0.938600000000     0.889220000000    -0.500908   
O228     O      0.722920000000     0.920330000000     0.804270000000    -0.497794   
O229     O      0.801860000000     0.858350000000     0.888130000000    -0.512308   
O230     O      0.889410000000     0.021460000000     0.808500000000    -0.486275   
O231     O      0.811050000000     0.930390000000     0.837180000000    -0.871819   
O232     O      0.880280000000     0.988750000000     0.891680000000    -0.497437   
O233     O      0.829820000000     0.020650000000     0.872170000000    -0.500354   
O234     O      0.745630000000     0.862630000000     0.784190000000    -0.509339   
O235     O      0.809810000000     0.997810000000     0.786090000000    -0.508927   
O236     O      0.883590000000     0.910000000000     0.868460000000    -0.501363   
O237     O      0.823450000000     0.854870000000     0.802160000000    -0.495306   
O238     O      0.903500000000     0.776440000000     0.622330000000    -0.494341   
O239     O      0.985990000000     0.700970000000     0.534510000000    -0.510812   
O240     O      0.985530000000     0.833600000000     0.638770000000    -0.480473   
O241     O      0.958410000000     0.836600000000     0.555220000000    -0.500383   
O242     O      0.910960000000     0.698370000000     0.639960000000    -0.510027   
O243     O      0.068250000000     0.781780000000     0.551560000000    -0.499754   
O244     O      0.978300000000     0.763590000000     0.586650000000    -0.866885   
O245     O      0.045510000000     0.761920000000     0.637630000000    -0.507578   
O246     O      0.069710000000     0.841620000000     0.614840000000    -0.485512   
O247     O      0.905830000000     0.754680000000     0.536360000000    -0.499815   
O248     O      0.036460000000     0.832200000000     0.531630000000    -0.510858   
O249     O      0.967850000000     0.674960000000     0.619280000000    -0.500395   
O250     O      0.904320000000     0.672690000000     0.554500000000    -0.499182   
O251     O      0.673090000000     0.949110000000     0.922260000000    -0.280128   
O252     O      0.107620000000     0.910830000000     0.677010000000    -0.267776   
O253     O      0.957750000000     0.058120000000     0.745560000000    -0.272454   
O254     O      0.963600000000     0.057620000000     0.931670000000    -0.277904   
O255     O      0.820220000000     0.742850000000     0.500530000000    -0.279472   
O256     O      0.996750000000     0.916570000000     0.676500000000    -0.267692   


