data_structure

_audit_creation_method RASPA-1.0
_audit_creation_date 2023-5-22
_audit_author_name 'Poobodin Mano'

_cell_length_a    26.7893
_cell_length_b    26.9946
_cell_length_c    26.6674
_cell_angle_alpha 90.1031
_cell_angle_beta  90.0001
_cell_angle_gamma 89.966
_cell_volume      19284.9

_symmetry_cell_setting          triclinic
_symmetry_space_group_name_Hall 'P 1'
_symmetry_space_group_name_H-M  'P 1'
_symmetry_Int_Tables_number     1

_symmetry_equiv_pos_as_xyz 'x,y,z'

loop_
_atom_site_label
_atom_site_type_symbol
_atom_site_fract_x
_atom_site_fract_y
_atom_site_fract_z
_atom_site_charge
C1       C      0.244920000000     0.608370000000     0.359090000000     0.527868   
C2       C      0.334320000000     0.614710000000     0.257480000000     0.521477   
C3       C      0.236630000000     0.534400000000     0.169020000000     0.526523   
C4       C      0.243740000000     0.460300000000     0.355600000000     0.522462   
C5       C      0.336780000000     0.464210000000     0.258450000000     0.519141   
C6       C      0.149420000000     0.543340000000     0.272310000000     0.538368   
C7       C      0.760050000000     0.619500000000     0.241410000000     0.520066   
C8       C      0.852340000000     0.623440000000     0.337870000000     0.525138   
C9       C      0.949910000000     0.543440000000     0.251900000000     0.53571    
C10      C      0.766770000000     0.467360000000     0.239280000000     0.532103   
C11      C      0.853200000000     0.477060000000     0.343160000000     0.535417   
C12      C      0.861300000000     0.548400000000     0.152550000000     0.529075   
C13      C      0.617330000000     0.850400000000     0.342430000000     0.528926   
C14      C      0.624470000000     0.762970000000     0.237190000000     0.530947   
C15      C      0.543230000000     0.855760000000     0.152620000000     0.53083    
C16      C      0.468850000000     0.844360000000     0.338520000000     0.528084   
C17      C      0.477410000000     0.752520000000     0.240640000000     0.521816   
C18      C      0.546590000000     0.944640000000     0.252160000000     0.52049    
C19      C      0.482420000000     0.254260000000     0.337920000000     0.52378    
C20      C      0.476690000000     0.332360000000     0.228460000000     0.529223   
C21      C      0.550070000000     0.228800000000     0.145290000000     0.527163   
C22      C      0.632790000000     0.246670000000     0.326760000000     0.533059   
C23      C      0.624280000000     0.333700000000     0.224210000000     0.52731    
C24      C      0.545520000000     0.148340000000     0.253100000000     0.522214   
C25      C      0.620440000000     0.226770000000     0.753320000000     0.525444   
C26      C      0.622310000000     0.323760000000     0.846230000000     0.52364    
C27      C      0.541910000000     0.237370000000     0.941510000000     0.530175   
C28      C      0.469330000000     0.222220000000     0.754980000000     0.524417   
C29      C      0.471270000000     0.324030000000     0.841720000000     0.524256   
C30      C      0.553130000000     0.139100000000     0.848920000000     0.535006   
C31      C      0.855760000000     0.332370000000     0.612680000000     0.525376   
C32      C      0.768610000000     0.228760000000     0.624780000000     0.526094   
C33      C      0.863780000000     0.142770000000     0.542390000000     0.530002   
C34      C      0.844340000000     0.323930000000     0.463660000000     0.533842   
C35      C      0.754170000000     0.226490000000     0.479260000000     0.527195   
C36      C      0.947900000000     0.246380000000     0.541040000000     0.527181   
C37      C      0.334060000000     0.208500000000     0.615570000000     0.509062   
C38      C      0.278370000000     0.321090000000     0.643630000000     0.495459   
C39      C      0.148410000000     0.233510000000     0.555690000000     0.49234    
C40      C      0.342050000000     0.276890000000     0.479720000000     0.408829   
C41      C      0.228370000000     0.332390000000     0.501820000000     0.501634   
C42      C      0.244730000000     0.145090000000     0.556950000000     0.492818   
C43      C      0.258450000000     0.471140000000     0.770050000000     0.525388   
C44      C      0.343140000000     0.465970000000     0.874290000000     0.535884   
C45      C      0.248720000000     0.542290000000     0.962820000000     0.526613   
C46      C      0.254350000000     0.621000000000     0.778690000000     0.526125   
C47      C      0.347240000000     0.612430000000     0.875940000000     0.530198   
C48      C      0.157020000000     0.537090000000     0.863850000000     0.520452   
C49      C      0.348670000000     0.853410000000     0.493960000000     0.525933   
C50      C      0.251680000000     0.760560000000     0.481680000000     0.526663   
C51      C      0.155220000000     0.850990000000     0.559590000000     0.527127   
C52      C      0.336550000000     0.849510000000     0.642600000000     0.534964   
C53      C      0.244700000000     0.752170000000     0.629730000000     0.523406   
C54      C      0.253300000000     0.942410000000     0.560360000000     0.526028   
C55      C      0.860040000000     0.748270000000     0.489440000000     0.520153   
C56      C      0.766470000000     0.843140000000     0.472080000000     0.533826   
C57      C      0.856940000000     0.940640000000     0.553490000000     0.540163   
C58      C      0.850610000000     0.759660000000     0.636260000000     0.532456   
C59      C      0.759850000000     0.858260000000     0.620220000000     0.517752   
C60      C      0.951260000000     0.842930000000     0.551240000000     0.540456   
C61      C      0.485930000000     0.858760000000     0.764730000000     0.534091   
C62      C      0.474240000000     0.759940000000     0.855920000000     0.540424   
C63      C      0.559190000000     0.836760000000     0.953320000000     0.534933   
C64      C      0.631750000000     0.853900000000     0.767860000000     0.522338   
C65      C      0.627230000000     0.752070000000     0.853870000000     0.52085    
C66      C      0.553880000000     0.940910000000     0.869630000000     0.540321   
C67      C      0.858640000000     0.607350000000     0.758720000000     0.52888    
C68      C      0.767040000000     0.614100000000     0.860720000000     0.53459    
C69      C      0.856210000000     0.534330000000     0.948240000000     0.53539    
C70      C      0.852190000000     0.459720000000     0.762300000000     0.530266   
C71      C      0.757840000000     0.469090000000     0.857920000000     0.523629   
C72      C      0.951050000000     0.537890000000     0.850030000000     0.523359   
C73      C      0.675180000000     0.621810000000     0.860720000000    -0.002062   
C74      C      0.726570000000     0.676290000000     0.915160000000    -0.00563791 
C75      C      0.649940000000     0.666130000000     0.835860000000    -0.00923742 
C76      C      0.706050000000     0.722540000000     0.889380000000    -0.00733524 
C77      C      0.892150000000     0.723450000000     0.709670000000    -0.00851606 
C78      C      0.829380000000     0.674270000000     0.656550000000    -0.00467945 
C79      C      0.914250000000     0.673750000000     0.726690000000    -0.00346751 
C80      C      0.858550000000     0.627520000000     0.668830000000    -0.00675751 
C81      C      0.729650000000     0.916090000000     0.686540000000    -0.00437599 
C82      C      0.669500000000     0.869550000000     0.634350000000    -0.0068655  
C83      C      0.705380000000     0.896930000000     0.735170000000    -0.0090487  
C84      C      0.649780000000     0.841340000000     0.679440000000    -0.00602428 
C85      C      0.026990000000     0.823880000000     0.600510000000    -0.0053491  
C86      C      0.031210000000     0.829150000000     0.506770000000    -0.00612694 
C87      C      0.075050000000     0.853960000000     0.604970000000    -0.00734898 
C88      C      0.077840000000     0.861700000000     0.510570000000    -0.00664597 
C89      C      0.370120000000     0.892550000000     0.716210000000    -0.00869461 
C90      C      0.424860000000     0.837440000000     0.659070000000    -0.00514527 
C91      C      0.418640000000     0.915590000000     0.736220000000    -0.00315942 
C92      C      0.469190000000     0.868780000000     0.674740000000    -0.00625156 
C93      C      0.028600000000     0.489110000000     0.837350000000    -0.00655605 
C94      C      0.030700000000     0.581840000000     0.834780000000    -0.00680662 
C95      C      0.078770000000     0.488640000000     0.865430000000    -0.00841364 
C96      C      0.077100000000     0.582190000000     0.868180000000    -0.00685632 
C97      C      0.396710000000     0.730670000000     0.895130000000    -0.00772254 
C98      C      0.450770000000     0.673700000000     0.840850000000    -0.00495285 
C99      C      0.378920000000     0.684840000000     0.923940000000    -0.00425468 
C100     C      0.437120000000     0.631200000000     0.875720000000    -0.00706223 
C101     C      0.191710000000     0.717440000000     0.697850000000    -0.00453288 
C102     C      0.245680000000     0.662260000000     0.646710000000    -0.00660492 
C103     C      0.213470000000     0.696140000000     0.746690000000    -0.00898718 
C104     C      0.274510000000     0.645770000000     0.693000000000    -0.00616298 
C105     C      0.218820000000     0.066150000000     0.595720000000    -0.00904649 
C106     C      0.262730000000     0.066860000000     0.511790000000    -0.0100296  
C107     C      0.248170000000     0.019850000000     0.610120000000    -0.00574997 
C108     C      0.290680000000     0.019670000000     0.526740000000    -0.00699524 
C109     C      0.254950000000     0.351260000000     0.727590000000    -0.00541481 
C110     C      0.311080000000     0.402420000000     0.672370000000    -0.00879613 
C111     C      0.220580000000     0.395580000000     0.734720000000    -0.00512144 
C112     C      0.277190000000     0.447740000000     0.681970000000    -0.00687126 
C113     C      0.868040000000     0.063030000000     0.496860000000    -0.00687861 
C114     C      0.880290000000     0.066680000000     0.590590000000    -0.00608711 
C115     C      0.838360000000     0.015060000000     0.502980000000    -0.00589718 
C116     C      0.847110000000     0.021100000000     0.596590000000    -0.00603142 
C117     C      0.027310000000     0.241200000000     0.493090000000    -0.00552455 
C118     C      0.024740000000     0.283500000000     0.576350000000    -0.00625908 
C119     C      0.071240000000     0.209170000000     0.510520000000    -0.00949588 
C120     C      0.066860000000     0.250670000000     0.595490000000    -0.00913987 
C121     C      0.892900000000     0.386010000000     0.727170000000    -0.00901573 
C122     C      0.831370000000     0.438740000000     0.675850000000    -0.00556088 
C123     C      0.913280000000     0.365980000000     0.677330000000    -0.00306811 
C124     C      0.858640000000     0.422270000000     0.628630000000    -0.00667387 
C125     C      0.506280000000     0.018820000000     0.877790000000    -0.00543665 
C126     C      0.600360000000     0.019390000000     0.878060000000    -0.00576028 
C127     C      0.506070000000     0.061070000000     0.840080000000    -0.00479389 
C128     C      0.599990000000     0.060820000000     0.838960000000    -0.00658319 
C129     C      0.450200000000     0.412480000000     0.835220000000    -0.0086899  
C130     C      0.392970000000     0.351950000000     0.881370000000    -0.0067808  
C131     C      0.433910000000     0.452410000000     0.872220000000    -0.00228031 
C132     C      0.378810000000     0.393830000000     0.917660000000    -0.00697856 
C133     C      0.393530000000     0.178450000000     0.728230000000    -0.00853785 
C134     C      0.445240000000     0.231210000000     0.667060000000    -0.00644717 
C135     C      0.368950000000     0.153850000000     0.682220000000    -0.006247   
C136     C      0.425130000000     0.198800000000     0.624720000000    -0.00752491 
C137     C      0.722810000000     0.399860000000     0.908280000000    -0.00487334 
C138     C      0.667030000000     0.453010000000     0.856820000000    -0.00642805 
C139     C      0.699830000000     0.352880000000     0.885260000000    -0.00877928 
C140     C      0.648650000000     0.408340000000     0.827000000000    -0.00658969 
C141     C      0.729100000000     0.169630000000     0.683520000000    -0.00698205 
C142     C      0.678320000000     0.233680000000     0.635380000000    -0.00610249 
C143     C      0.697740000000     0.182700000000     0.730080000000    -0.00698487 
C144     C      0.635510000000     0.209280000000     0.663730000000    -0.00785028 
C145     C      0.594200000000     0.220900000000     0.064330000000    -0.00703526 
C146     C      0.500190000000     0.217280000000     0.067930000000    -0.00648411 
C147     C      0.590900000000     0.253890000000     0.018100000000    -0.00483615 
C148     C      0.497330000000     0.251240000000     0.021850000000    -0.00677029 
C149     C      0.364330000000     0.255110000000     0.392570000000    -0.0119558  
C150     C      0.425560000000     0.301120000000     0.447370000000    -0.0122614  
C151     C      0.405830000000     0.220060000000     0.376210000000    -0.00336484 
C152     C      0.467270000000     0.266300000000     0.429080000000    -0.00592979 
C153     C      0.718570000000     0.176060000000     0.410240000000    -0.00401732 
C154     C      0.664780000000     0.232960000000     0.459650000000    -0.0066906  
C155     C      0.705820000000     0.203420000000     0.361590000000    -0.0078609  
C156     C      0.655530000000     0.265460000000     0.413760000000    -0.0059376  
C157     C      0.593590000000     0.072870000000     0.273960000000    -0.00566831 
C158     C      0.500320000000     0.071670000000     0.276670000000    -0.0065875  
C159     C      0.594180000000     0.022480000000     0.247490000000    -0.00850249 
C160     C      0.499610000000     0.023100000000     0.246740000000    -0.0073725  
C161     C      0.508450000000     0.814130000000     0.027140000000    -0.00428036 
C162     C      0.601100000000     0.823290000000     0.034480000000    -0.00633231 
C163     C      0.500410000000     0.850070000000     0.070680000000    -0.00726776 
C164     C      0.594160000000     0.861910000000     0.075920000000    -0.00575261 
C165     C      0.684500000000     0.904770000000     0.375850000000    -0.00352197 
C166     C      0.634530000000     0.852230000000     0.433190000000    -0.00675172 
C167     C      0.733480000000     0.883250000000     0.396410000000    -0.00880262 
C168     C      0.680630000000     0.823580000000     0.449330000000    -0.00488176 
C169     C      0.381820000000     0.908710000000     0.427750000000    -0.00327153 
C170     C      0.438320000000     0.851940000000     0.473780000000    -0.00656489 
C171     C      0.396800000000     0.886020000000     0.377170000000    -0.00881179 
C172     C      0.450220000000     0.823470000000     0.425760000000    -0.00599817 
C173     C      0.865420000000     0.592050000000     0.071420000000    -0.00788364 
C174     C      0.870890000000     0.498450000000     0.076070000000    -0.00588132 
C175     C      0.837460000000     0.587000000000     0.021640000000    -0.00444466 
C176     C      0.838340000000     0.494470000000     0.029370000000    -0.00576385 
C177     C      0.885660000000     0.361820000000     0.390810000000    -0.00866278 
C178     C      0.821120000000     0.409150000000     0.443450000000    -0.00502703 
C179     C      0.908810000000     0.411880000000     0.377210000000    -0.00276831 
C180     C      0.849820000000     0.456660000000     0.432910000000    -0.00660834 
C181     C      0.742770000000     0.388550000000     0.200320000000    -0.00893339 
C182     C      0.679250000000     0.444230000000     0.245780000000    -0.00529414 
C183     C      0.698390000000     0.361870000000     0.175220000000    -0.00482847 
C184     C      0.639480000000     0.422890000000     0.211460000000    -0.00691137 
C185     C      0.630580000000     0.671940000000     0.231420000000    -0.00275887 
C186     C      0.689030000000     0.724800000000     0.183130000000    -0.00546473 
C187     C      0.673370000000     0.643550000000     0.255880000000    -0.009176   
C188     C      0.734100000000     0.700290000000     0.208370000000    -0.00788201 
C189     C      0.916870000000     0.712580000000     0.425260000000    -0.00438773 
C190     C      0.858800000000     0.658490000000     0.472380000000    -0.00659414 
C191     C      0.895650000000     0.694900000000     0.374820000000    -0.00859636 
C192     C      0.831140000000     0.644480000000     0.424440000000    -0.00624738 
C193     C      0.072220000000     0.496330000000     0.289530000000    -0.00402156 
C194     C      0.071470000000     0.589040000000     0.289630000000    -0.00610907 
C195     C      0.027990000000     0.495320000000     0.253610000000    -0.00672402 
C196     C      0.029210000000     0.589290000000     0.251200000000    -0.00585278 
C197     C      0.259880000000     0.491030000000     0.038870000000    -0.00610063 
C198     C      0.261740000000     0.583840000000     0.044410000000    -0.00676093 
C199     C      0.231190000000     0.488590000000     0.088670000000    -0.00796844 
C200     C      0.228190000000     0.582010000000     0.090670000000    -0.00610605 
C201     C      0.465010000000     0.422730000000     0.224370000000    -0.00254382 
C202     C      0.403530000000     0.366630000000     0.184340000000    -0.0067309  
C203     C      0.425990000000     0.443480000000     0.260330000000    -0.00910127 
C204     C      0.362210000000     0.385140000000     0.219660000000    -0.00758239 
C205     C      0.194270000000     0.391920000000     0.391870000000    -0.00851805 
C206     C      0.264750000000     0.434080000000     0.441110000000    -0.00585691 
C207     C      0.171520000000     0.376080000000     0.442490000000    -0.00856298 
C208     C      0.235890000000     0.422580000000     0.489090000000    -0.00880608 
C209     C      0.405020000000     0.718160000000     0.193170000000    -0.00518057 
C210     C      0.462830000000     0.662060000000     0.238560000000    -0.00677557 
C211     C      0.359590000000     0.692560000000     0.217340000000    -0.00924672 
C212     C      0.420400000000     0.641660000000     0.270460000000    -0.00649992 
C213     C      0.209490000000     0.724380000000     0.408640000000    -0.00905861 
C214     C      0.269130000000     0.673750000000     0.464400000000    -0.00531992 
C215     C      0.188410000000     0.674910000000     0.389600000000    -0.00296215 
C216     C      0.240590000000     0.627430000000     0.449320000000    -0.00681712 
Fe1      Fe     0.236470000000     0.592170000000     0.256710000000     1.36131    
Fe2      Fe     0.233600000000     0.483990000000     0.257290000000     1.34779    
Fe3      Fe     0.304170000000     0.536840000000     0.320000000000     1.35396    
Fe4      Fe     0.863270000000     0.600340000000     0.239580000000     1.35033    
Fe5      Fe     0.864290000000     0.492360000000     0.240770000000     1.36948    
Fe6      Fe     0.793030000000     0.546670000000     0.301660000000     1.36526    
Fe7      Fe     0.600030000000     0.860330000000     0.240080000000     1.35618    
Fe8      Fe     0.491140000000     0.856190000000     0.240030000000     1.33992    
Fe9      Fe     0.548430000000     0.788990000000     0.302240000000     1.36764    
Fe10     Fe     0.496050000000     0.234390000000     0.235330000000     1.34672    
Fe11     Fe     0.604850000000     0.231470000000     0.230570000000     1.34946    
Fe12     Fe     0.554730000000     0.305360000000     0.291500000000     1.36785    
Fe13     Fe     0.601050000000     0.227010000000     0.855780000000     1.36092    
Fe14     Fe     0.492190000000     0.223050000000     0.853910000000     1.35391    
Fe15     Fe     0.545840000000     0.286530000000     0.784840000000     1.35746    
Fe16     Fe     0.865440000000     0.231040000000     0.597830000000     1.35459    
Fe17     Fe     0.858970000000     0.227650000000     0.488860000000     1.35024    
Fe18     Fe     0.792430000000     0.290760000000     0.546520000000     1.37427    
Fe19     Fe     0.231030000000     0.232600000000     0.615120000000     1.44057    
Fe20     Fe     0.239730000000     0.230260000000     0.503870000000     1.2306     
Fe21     Fe     0.299800000000     0.280990000000     0.553660000000     1.48937    
Fe22     Fe     0.244380000000     0.487180000000     0.873830000000     1.34829    
Fe23     Fe     0.243870000000     0.595320000000     0.876140000000     1.34418    
Fe24     Fe     0.313640000000     0.542720000000     0.812190000000     1.3717     
Fe25     Fe     0.245410000000     0.857550000000     0.506010000000     1.34966    
Fe26     Fe     0.239470000000     0.855170000000     0.615110000000     1.34933    
Fe27     Fe     0.308810000000     0.791200000000     0.562190000000     1.37398    
Fe28     Fe     0.863610000000     0.852180000000     0.498030000000     1.35837    
Fe29     Fe     0.864000000000     0.854740000000     0.608560000000     1.35766    
Fe30     Fe     0.796190000000     0.790700000000     0.555050000000     1.36683    
Fe31     Fe     0.501340000000     0.855550000000     0.868230000000     1.37286    
Fe32     Fe     0.610440000000     0.853640000000     0.866820000000     1.35345    
Fe33     Fe     0.554420000000     0.792320000000     0.798040000000     1.36881    
Fe34     Fe     0.865230000000     0.590640000000     0.861650000000     1.35818    
Fe35     Fe     0.862270000000     0.482400000000     0.860670000000     1.34356    
Fe36     Fe     0.795850000000     0.539030000000     0.796840000000     1.3712     
H1       H      0.702400000000     0.667430000000     0.947860000000     0.0380288  
H2       H      0.651830000000     0.610390000000     0.893190000000     0.036422   
H3       H      0.609470000000     0.657940000000     0.831510000000     0.0384282  
H4       H      0.765090000000     0.683670000000     0.928820000000     0.0348933  
H5       H      0.701910000000     0.752410000000     0.917910000000     0.0379718  
H6       H      0.733780000000     0.735420000000     0.861230000000     0.0416234  
H7       H      0.676470000000     0.590100000000     0.834050000000     0.0378724  
H8       H      0.665610000000     0.670370000000     0.797490000000     0.038453   
H9       H      0.795940000000     0.676330000000     0.681210000000     0.0411567  
H10      H      0.868830000000     0.738360000000     0.740720000000     0.0373584  
H11      H      0.927250000000     0.676640000000     0.766200000000     0.0380755  
H12      H      0.816160000000     0.671720000000     0.617040000000     0.0366768  
H13      H      0.833780000000     0.594710000000     0.664770000000     0.0373661  
H14      H      0.889970000000     0.623840000000     0.641790000000     0.0393884  
H15      H      0.922940000000     0.750410000000     0.703560000000     0.037667   
H16      H      0.947540000000     0.665990000000     0.703020000000     0.0363139  
H17      H      0.647440000000     0.904210000000     0.629970000000     0.0380376  
H18      H      0.711700000000     0.952030000000     0.677030000000     0.0348257  
H19      H      0.698030000000     0.928730000000     0.760720000000     0.0379481  
H20      H      0.664690000000     0.846700000000     0.599960000000     0.0382968  
H21      H      0.609080000000     0.834750000000     0.674160000000     0.0369671  
H22      H      0.668320000000     0.804470000000     0.680920000000     0.0430449  
H23      H      0.769910000000     0.923690000000     0.693110000000     0.0389175  
H24      H      0.732880000000     0.872830000000     0.754670000000     0.0370709  
H25      H      0.043140000000     0.789890000000     0.502580000000     0.0399774  
H26      H      0.037150000000     0.783940000000     0.601350000000     0.0398348  
H27      H      0.096640000000     0.840400000000     0.637810000000     0.0375793  
H28      H      0.009840000000     0.839840000000     0.472700000000     0.0361332  
H29      H      0.102000000000     0.854320000000     0.477450000000     0.0383762  
H30      H      0.066190000000     0.901230000000     0.509400000000     0.0378978  
H31      H      0.002980000000     0.831270000000     0.633720000000     0.0405913  
H32      H      0.064700000000     0.893130000000     0.612700000000     0.0355225  
H33      H      0.425860000000     0.801730000000     0.679840000000     0.0415029  
H34      H      0.354740000000     0.867740000000     0.745640000000     0.0368549  
H35      H      0.414370000000     0.925060000000     0.776600000000     0.0383764  
H36      H      0.428340000000     0.828780000000     0.618370000000     0.0385366  
H37      H      0.504310000000     0.847620000000     0.668710000000     0.0381482  
H38      H      0.470310000000     0.902620000000     0.651000000000     0.0385547  
H39      H      0.342010000000     0.922330000000     0.710270000000     0.037913   
H40      H      0.425100000000     0.950810000000     0.715620000000     0.0350669  
H41      H      0.042800000000     0.582770000000     0.794890000000     0.0412614  
H42      H      0.036540000000     0.483920000000     0.796750000000     0.0392585  
H43      H      0.101590000000     0.457090000000     0.851440000000     0.0381723  
H44      H      0.008600000000     0.615900000000     0.842500000000     0.0368491  
H45      H      0.099810000000     0.615430000000     0.858870000000     0.0388315  
H46      H      0.065120000000     0.585360000000     0.907990000000     0.0389133  
H47      H      0.005840000000     0.456900000000     0.849610000000     0.0392044  
H48      H      0.070980000000     0.481410000000     0.905720000000     0.0355357  
H49      H      0.426500000000     0.672160000000     0.807030000000     0.0398919  
H50      H      0.366980000000     0.741210000000     0.868080000000     0.0373438  
H51      H      0.339410000000     0.689790000000     0.935740000000     0.0375518  
H52      H      0.490200000000     0.668990000000     0.828510000000     0.0372193  
H53      H      0.441400000000     0.595440000000     0.855430000000     0.037577   
H54      H      0.463360000000     0.631310000000     0.908060000000     0.0395735  
H55      H      0.400920000000     0.762130000000     0.921790000000     0.0360362  
H56      H      0.401940000000     0.681640000000     0.958500000000     0.0362004  
H57      H      0.213650000000     0.636650000000     0.640970000000     0.0395605  
H58      H      0.157550000000     0.695890000000     0.688580000000     0.0364249  
H59      H      0.182500000000     0.689000000000     0.773500000000     0.0380515  
H60      H      0.270440000000     0.659920000000     0.613320000000     0.0371252  
H61      H      0.286610000000     0.606660000000     0.687490000000     0.038578   
H62      H      0.308650000000     0.668920000000     0.696760000000     0.0412408  
H63      H      0.180000000000     0.756510000000     0.703990000000     0.0382233  
H64      H      0.237600000000     0.724940000000     0.764060000000     0.0366567  
H65      H      0.229840000000     0.056090000000     0.488790000000     0.0356256  
H66      H      0.181750000000     0.054500000000     0.581130000000     0.0386203  
H67      H      0.225550000000     0.997560000000     0.636740000000     0.0383369  
H68      H      0.287670000000     0.089600000000     0.487750000000     0.0424658  
H69      H      0.298280000000     0.997330000000     0.492520000000     0.0405869  
H70      H      0.327260000000     0.030620000000     0.543070000000     0.0397366  
H71      H      0.212420000000     0.088450000000     0.630210000000     0.0369168  
H72      H      0.282700000000     0.031680000000     0.629970000000     0.036557   
H73      H      0.342420000000     0.403510000000     0.699690000000     0.039397   
H74      H      0.282200000000     0.350860000000     0.759070000000     0.0387187  
H75      H      0.201190000000     0.392980000000     0.771500000000     0.0384621  
H76      H      0.326880000000     0.404760000000     0.633870000000     0.0463959  
H77      H      0.300250000000     0.481970000000     0.681610000000     0.0361813  
H78      H      0.249720000000     0.450140000000     0.650790000000     0.0409017  
H79      H      0.232930000000     0.316430000000     0.729760000000     0.0326152  
H80      H      0.191670000000     0.394570000000     0.704800000000     0.0429562  
H81      H      0.919930000000     0.054470000000     0.589310000000     0.0373965  
H82      H      0.907270000000     0.052980000000     0.487730000000     0.0349536  
H83      H      0.845290000000     0.990630000000     0.470080000000     0.0408928  
H84      H      0.875290000000     0.090900000000     0.624010000000     0.0383534  
H85      H      0.859060000000     0.000470000000     0.630620000000     0.0362364  
H86      H      0.807900000000     0.033530000000     0.602130000000     0.0404575  
H87      H      0.852920000000     0.084080000000     0.464430000000     0.0373319  
H88      H      0.797990000000     0.024690000000     0.502780000000     0.0401692  
H89      H      0.041470000000     0.317700000000     0.560340000000     0.0405453  
H90      H      0.042670000000     0.274620000000     0.474250000000     0.0367509  
H91      H      0.096310000000     0.202270000000     0.478040000000     0.0390536  
H92      H      0.000550000000     0.294670000000     0.608310000000     0.0411099  
H93      H      0.088750000000     0.271940000000     0.623600000000     0.0423199  
H94      H      0.050120000000     0.218280000000     0.614940000000     0.034837   
H95      H      0.005040000000     0.220270000000     0.465000000000     0.0384125  
H96      H      0.056300000000     0.172800000000     0.523000000000     0.0380971  
H97      H      0.796340000000     0.416920000000     0.679540000000     0.0413645  
H98      H      0.869230000000     0.356810000000     0.744430000000     0.0378608  
H99      H      0.925340000000     0.326830000000     0.681980000000     0.0368072  
H100     H      0.820740000000     0.478400000000     0.671560000000     0.0374271  
H101     H      0.833100000000     0.425190000000     0.595890000000     0.0373079  
H102     H      0.891020000000     0.447310000000     0.622410000000     0.0385624  
H103     H      0.924590000000     0.392610000000     0.753300000000     0.0384686  
H104     H      0.946990000000     0.387960000000     0.667500000000     0.03526    
H105     H      0.603010000000     0.036390000000     0.915980000000     0.0369631  
H106     H      0.503180000000     0.035120000000     0.915990000000     0.0363405  
H107     H      0.472600000000     0.084690000000     0.846220000000     0.0390656  
H108     H      0.633890000000     0.995790000000     0.871990000000     0.0383043  
H109     H      0.633570000000     0.084420000000     0.844390000000     0.0369362  
H110     H      0.602020000000     0.043800000000     0.801000000000     0.0414438  
H111     H      0.472920000000     0.995080000000     0.871670000000     0.0357402  
H112     H      0.503030000000     0.044760000000     0.801880000000     0.0408043  
H113     H      0.362860000000     0.348150000000     0.852900000000     0.0381325  
H114     H      0.428500000000     0.417140000000     0.799990000000     0.0405833  
H115     H      0.435440000000     0.489440000000     0.854000000000     0.0375638  
H116     H      0.394710000000     0.316690000000     0.902830000000     0.0386203  
H117     H      0.340220000000     0.387840000000     0.931810000000     0.0342408  
H118     H      0.405020000000     0.393070000000     0.950000000000     0.0386388  
H119     H      0.490210000000     0.418380000000     0.825920000000     0.0401383  
H120     H      0.460700000000     0.452550000000     0.904090000000     0.0375426  
H121     H      0.424630000000     0.267010000000     0.667230000000     0.0482687  
H122     H      0.365910000000     0.204170000000     0.745360000000     0.0356996  
H123     H      0.329350000000     0.144820000000     0.690690000000     0.0358121  
H124     H      0.485240000000     0.239560000000     0.659560000000     0.0384134  
H125     H      0.427880000000     0.219150000000     0.588620000000     0.0471353  
H126     H      0.448610000000     0.164890000000     0.621970000000     0.0387012  
H127     H      0.401490000000     0.149540000000     0.756830000000     0.0368304  
H128     H      0.388640000000     0.118250000000     0.675070000000     0.0345992  
H129     H      0.641970000000     0.458550000000     0.889620000000     0.0384032  
H130     H      0.702120000000     0.408290000000     0.943430000000     0.036228   
H131     H      0.693340000000     0.325360000000     0.915570000000     0.0369899  
H132     H      0.664990000000     0.486570000000     0.832790000000     0.0359757  
H133     H      0.609130000000     0.414780000000     0.815810000000     0.0365067  
H134     H      0.671250000000     0.404850000000     0.792180000000     0.0416918  
H135     H      0.762330000000     0.392680000000     0.918770000000     0.0382906  
H136     H      0.727750000000     0.336270000000     0.859340000000     0.0372368  
H137     H      0.679230000000     0.273800000000     0.645010000000     0.0432325  
H138     H      0.768070000000     0.161220000000     0.695160000000     0.0356592  
H139     H      0.719730000000     0.208270000000     0.754260000000     0.0432037  
H140     H      0.671360000000     0.230990000000     0.594340000000     0.0389148  
H141     H      0.600710000000     0.230830000000     0.657360000000     0.0398444  
H142     H      0.629590000000     0.171320000000     0.648600000000     0.0384293  
H143     H      0.713380000000     0.135850000000     0.665600000000     0.0380014  
H144     H      0.690720000000     0.148700000000     0.752480000000     0.0350066  
H145     H      0.497550000000     0.178170000000     0.055040000000     0.037265   
H146     H      0.598840000000     0.181970000000     0.051440000000     0.0367351  
H147     H      0.623810000000     0.247100000000     0.993610000000     0.0392901  
H148     H      0.467660000000     0.225070000000     0.092650000000     0.038824   
H149     H      0.463330000000     0.241910000000     0.999850000000     0.0358947  
H150     H      0.494000000000     0.290220000000     0.035000000000     0.0415383  
H151     H      0.628100000000     0.230920000000     0.086130000000     0.0379363  
H152     H      0.592760000000     0.293110000000     0.030800000000     0.041027   
H153     H      0.426200000000     0.335150000000     0.423950000000     0.0398352  
H154     H      0.361590000000     0.285380000000     0.364450000000     0.0399692  
H155     H      0.397830000000     0.205710000000     0.337930000000     0.0379193  
H156     H      0.433370000000     0.312040000000     0.486810000000     0.049594   
H157     H      0.503250000000     0.286790000000     0.428620000000     0.0372978  
H158     H      0.470720000000     0.235330000000     0.456300000000     0.0394044  
H159     H      0.328220000000     0.234900000000     0.392240000000     0.0380409  
H160     H      0.406170000000     0.187920000000     0.402260000000     0.0400246  
H161     H      0.635290000000     0.204010000000     0.461280000000     0.03882    
H162     H      0.691520000000     0.145130000000     0.414630000000     0.0364369  
H163     H      0.700370000000     0.175860000000     0.331020000000     0.0370646  
H164     H      0.662270000000     0.255980000000     0.494180000000     0.0352043  
H165     H      0.617310000000     0.281460000000     0.416420000000     0.0383883  
H166     H      0.682720000000     0.296580000000     0.413940000000     0.040987   
H167     H      0.756580000000     0.159630000000     0.407550000000     0.037669   
H168     H      0.738500000000     0.226530000000     0.351040000000     0.0382021  
H169     H      0.499510000000     0.062630000000     0.317340000000     0.0404762  
H170     H      0.597630000000     0.066210000000     0.314900000000     0.0386458  
H171     H      0.626510000000     0.000730000000     0.261620000000     0.0374768  
H172     H      0.466230000000     0.093370000000     0.267510000000     0.0364277  
H173     H      0.466860000000     0.000780000000     0.258860000000     0.038225   
H174     H      0.494780000000     0.031990000000     0.206320000000     0.0390718  
H175     H      0.626540000000     0.094840000000     0.261820000000     0.0392909  
H176     H      0.600600000000     0.028940000000     0.206830000000     0.0364123  
H177     H      0.604950000000     0.786160000000     0.052070000000     0.040943   
H178     H      0.509180000000     0.775940000000     0.042710000000     0.0397018  
H179     H      0.467410000000     0.838040000000     0.092800000000     0.0385393  
H180     H      0.635820000000     0.831610000000     0.013230000000     0.0360871  
H181     H      0.626450000000     0.859380000000     0.102010000000     0.0394558  
H182     H      0.594410000000     0.899390000000     0.058670000000     0.0382106  
H183     H      0.476450000000     0.816360000000     0.000660000000     0.0408735  
H184     H      0.491750000000     0.887140000000     0.054770000000     0.0374428  
H185     H      0.629640000000     0.884550000000     0.458680000000     0.0385356  
H186     H      0.675720000000     0.938770000000     0.397760000000     0.0361507  
H187     H      0.760390000000     0.913950000000     0.403040000000     0.0377876  
H188     H      0.601110000000     0.828040000000     0.436500000000     0.0376789  
H189     H      0.675920000000     0.812530000000     0.489260000000     0.03586    
H190     H      0.683480000000     0.789140000000     0.426530000000     0.0408729  
H191     H      0.689650000000     0.916130000000     0.336130000000     0.0380092  
H192     H      0.750100000000     0.859060000000     0.367020000000     0.0367519  
H193     H      0.465880000000     0.882450000000     0.478150000000     0.0380493  
H194     H      0.406810000000     0.940820000000     0.435020000000     0.0356871  
H195     H      0.402140000000     0.916260000000     0.349400000000     0.0388349  
H196     H      0.441620000000     0.826690000000     0.506530000000     0.0350638  
H197     H      0.489630000000     0.810490000000     0.427760000000     0.0377651  
H198     H      0.425880000000     0.790150000000     0.423770000000     0.0411388  
H199     H      0.342950000000     0.923100000000     0.425720000000     0.0369156  
H200     H      0.365240000000     0.862930000000     0.363500000000     0.0384515  
H201     H      0.910760000000     0.495880000000     0.064700000000     0.0385626  
H202     H      0.905360000000     0.599440000000     0.062930000000     0.0361937  
H203     H      0.847730000000     0.618320000000     0.996660000000     0.0399832  
H204     H      0.862370000000     0.466430000000     0.100850000000     0.0395363  
H205     H      0.847530000000     0.459490000000     0.009260000000     0.0363553  
H206     H      0.798500000000     0.493100000000     0.041040000000     0.0415514  
H207     H      0.850770000000     0.624780000000     0.092100000000     0.0385555  
H208     H      0.796840000000     0.590320000000     0.029580000000     0.0398783  
H209     H      0.788420000000     0.407130000000     0.417820000000     0.039846   
H210     H      0.862770000000     0.349050000000     0.358500000000     0.0377438  
H211     H      0.924540000000     0.410350000000     0.338630000000     0.0381768  
H212     H      0.806760000000     0.410940000000     0.482590000000     0.0374741  
H213     H      0.824190000000     0.488950000000     0.436010000000     0.0366957  
H214     H      0.879870000000     0.460730000000     0.461430000000     0.038726   
H215     H      0.915960000000     0.334140000000     0.396140000000     0.0389609  
H216     H      0.940290000000     0.418850000000     0.403490000000     0.0365995  
H217     H      0.676860000000     0.425870000000     0.283020000000     0.0410238  
H218     H      0.758340000000     0.363590000000     0.229550000000     0.0360745  
H219     H      0.706900000000     0.321740000000     0.171230000000     0.0379007  
H220     H      0.671760000000     0.484450000000     0.251390000000     0.0372129  
H221     H      0.602100000000     0.428420000000     0.228680000000     0.0391316  
H222     H      0.640330000000     0.443330000000     0.175270000000     0.0391845  
H223     H      0.772860000000     0.393950000000     0.172110000000     0.037127   
H224     H      0.694080000000     0.377240000000     0.136800000000     0.0351216  
H225     H      0.680230000000     0.704130000000     0.148110000000     0.0375907  
H226     H      0.619490000000     0.651610000000     0.196850000000     0.0365846  
H227     H      0.663440000000     0.603550000000     0.256830000000     0.03825    
H228     H      0.698400000000     0.763720000000     0.173230000000     0.0343097  
H229     H      0.764620000000     0.696540000000     0.180290000000     0.0373223  
H230     H      0.747880000000     0.725260000000     0.238570000000     0.0416989  
H231     H      0.597740000000     0.672380000000     0.256950000000     0.0385772  
H232     H      0.676740000000     0.656100000000     0.295480000000     0.0381071  
H233     H      0.889600000000     0.631490000000     0.478440000000     0.0384189  
H234     H      0.949220000000     0.688470000000     0.434660000000     0.0360863  
H235     H      0.927040000000     0.687550000000     0.348530000000     0.0382868  
H236     H      0.832740000000     0.656430000000     0.504770000000     0.0366258  
H237     H      0.818190000000     0.605440000000     0.427820000000     0.0381433  
H238     H      0.797480000000     0.668360000000     0.420820000000     0.0418688  
H239     H      0.931160000000     0.751090000000     0.421620000000     0.0392519  
H240     H      0.873390000000     0.725650000000     0.358410000000     0.0377918  
H241     H      0.054920000000     0.590330000000     0.327860000000     0.0399174  
H242     H      0.057420000000     0.494410000000     0.328440000000     0.0386373  
H243     H      0.003810000000     0.463140000000     0.262880000000     0.036472   
H244     H      0.094800000000     0.622690000000     0.284340000000     0.0366248  
H245     H      0.005360000000     0.622410000000     0.257930000000     0.0380279  
H246     H      0.045600000000     0.592320000000     0.213020000000     0.0381412  
H247     H      0.095980000000     0.463070000000     0.283380000000     0.0386075  
H248     H      0.042590000000     0.489350000000     0.215040000000     0.0367861  
H249     H      0.301350000000     0.584980000000     0.056850000000     0.0423612  
H250     H      0.300200000000     0.485810000000     0.047270000000     0.0403928  
H251     H      0.244390000000     0.455980000000     0.110370000000     0.0382865  
H252     H      0.253630000000     0.618440000000     0.023320000000     0.0368165  
H253     H      0.236710000000     0.614720000000     0.114620000000     0.0392     
H254     H      0.188610000000     0.584800000000     0.078400000000     0.0380087  
H255     H      0.248210000000     0.459570000000     0.014600000000     0.0395344  
H256     H      0.191110000000     0.482320000000     0.079900000000     0.0353052  
H257     H      0.403220000000     0.389830000000     0.149920000000     0.0380319  
H258     H      0.465580000000     0.446520000000     0.190350000000     0.0368907  
H259     H      0.433070000000     0.483780000000     0.265330000000     0.0401273  
H260     H      0.396000000000     0.327520000000     0.173530000000     0.0342579  
H261     H      0.326650000000     0.387180000000     0.198200000000     0.0383764  
H262     H      0.356980000000     0.357390000000     0.249990000000     0.039183   
H263     H      0.502630000000     0.424520000000     0.241960000000     0.0371426  
H264     H      0.431140000000     0.425640000000     0.297520000000     0.0404039  
H265     H      0.295310000000     0.406500000000     0.436700000000     0.0444756  
H266     H      0.212710000000     0.359050000000     0.374830000000     0.0346287  
H267     H      0.152630000000     0.339630000000     0.438300000000     0.0405027  
H268     H      0.282230000000     0.471270000000     0.445160000000     0.0393059  
H269     H      0.261970000000     0.422030000000     0.521510000000     0.0475833  
H270     H      0.208190000000     0.452660000000     0.495540000000     0.0391642  
H271     H      0.163580000000     0.402890000000     0.366080000000     0.0385907  
H272     H      0.142500000000     0.403740000000     0.452840000000     0.0372193  
H273     H      0.466510000000     0.638730000000     0.204320000000     0.0383351  
H274     H      0.412080000000     0.699870000000     0.156450000000     0.0355709  
H275     H      0.330970000000     0.685580000000     0.187940000000     0.037509   
H276     H      0.498290000000     0.659610000000     0.260060000000     0.0362308  
H277     H      0.428570000000     0.602240000000     0.279570000000     0.0363548  
H278     H      0.418810000000     0.662650000000     0.306370000000     0.0415045  
H279     H      0.395960000000     0.757600000000     0.185350000000     0.0379572  
H280     H      0.342590000000     0.718870000000     0.244560000000     0.0366754  
H281     H      0.304560000000     0.675340000000     0.442680000000     0.0413889  
H282     H      0.233480000000     0.740310000000     0.378710000000     0.0374311  
H283     H      0.177320000000     0.678440000000     0.349570000000     0.0382585  
H284     H      0.279120000000     0.670740000000     0.504820000000     0.0380042  
H285     H      0.264980000000     0.594410000000     0.453990000000     0.0382404  
H286     H      0.207600000000     0.623430000000     0.474330000000     0.0392917  
H287     H      0.178250000000     0.750920000000     0.414620000000     0.0385685  
H288     H      0.153970000000     0.666800000000     0.411380000000     0.0359275  
N1       N      0.658020000000     0.712920000000     0.863530000000    -0.185835   
N2       N      0.724870000000     0.635660000000     0.879050000000    -0.189783   
N3       N      0.878020000000     0.633500000000     0.719620000000    -0.1881     
N4       N      0.860340000000     0.718900000000     0.664640000000    -0.18888    
N5       N      0.659230000000     0.867910000000     0.727160000000    -0.185877   
N6       N      0.721580000000     0.881500000000     0.644700000000    -0.185381   
N7       N      0.104250000000     0.852320000000     0.558110000000    -0.187971   
N8       N      0.001480000000     0.834330000000     0.552800000000    -0.190333   
N9       N      0.461020000000     0.882300000000     0.727070000000    -0.188952   
N10      N      0.377180000000     0.862980000000     0.669990000000    -0.189174   
N11      N      0.105890000000     0.536120000000     0.861720000000    -0.185613   
N12      N      0.001830000000     0.536390000000     0.843710000000    -0.18634    
N13      N      0.386120000000     0.640070000000     0.893470000000    -0.188733   
N14      N      0.443150000000     0.721520000000     0.866540000000    -0.190907   
N15      N      0.244030000000     0.651140000000     0.738900000000    -0.186733   
N16      N      0.227200000000     0.712420000000     0.656100000000    -0.186811   
N17      N      0.262150000000     0.992140000000     0.564720000000    -0.187777   
N18      N      0.244980000000     0.094360000000     0.556290000000    -0.182594   
N19      N      0.250090000000     0.441160000000     0.729650000000    -0.187849   
N20      N      0.282430000000     0.356450000000     0.679990000000    -0.181518   
N21      N      0.850090000000     0.990670000000     0.550940000000    -0.190274   
N22      N      0.868010000000     0.092390000000     0.543500000000    -0.188956   
N23      N      0.097440000000     0.232670000000     0.553100000000    -0.182316   
N24      N      0.997580000000     0.256920000000     0.536710000000    -0.188518   
N25      N      0.876220000000     0.371810000000     0.637190000000    -0.187675   
N26      N      0.862190000000     0.431140000000     0.721280000000    -0.187851   
N27      N      0.553130000000     0.088960000000     0.843470000000    -0.189766   
N28      N      0.553540000000     0.991110000000     0.874420000000    -0.191694   
N29      N      0.383860000000     0.440820000000     0.891050000000    -0.190116   
N30      N      0.440620000000     0.362310000000     0.855090000000    -0.186695   
N31      N      0.373830000000     0.185290000000     0.637620000000    -0.184139   
N32      N      0.439180000000     0.207140000000     0.716460000000    -0.186625   
N33      N      0.653590000000     0.362400000000     0.856480000000    -0.186667   
N34      N      0.717760000000     0.442300000000     0.874260000000    -0.187186   
N35      N      0.649560000000     0.206120000000     0.716840000000    -0.186886   
N36      N      0.726950000000     0.210850000000     0.647650000000    -0.187252   
N37      N      0.543160000000     0.246040000000     0.991950000000    -0.188335   
N38      N      0.548080000000     0.224300000000     0.094270000000    -0.187804   
N39      N      0.453950000000     0.245970000000     0.379560000000    -0.188249   
N40      N      0.376420000000     0.277020000000     0.441840000000    -0.162645   
N41      N      0.662090000000     0.236420000000     0.367220000000    -0.188794   
N42      N      0.713730000000     0.209630000000     0.453330000000    -0.188323   
N43      N      0.546630000000     0.995390000000     0.253260000000    -0.185757   
N44      N      0.546240000000     0.099130000000     0.265330000000    -0.186389   
N45      N      0.545860000000     0.854260000000     0.101560000000    -0.188701   
N46      N      0.556600000000     0.824050000000     0.002610000000    -0.189419   
N47      N      0.726480000000     0.853260000000     0.442180000000    -0.189265   
N48      N      0.643300000000     0.869390000000     0.382050000000    -0.188004   
N49      N      0.441560000000     0.854210000000     0.380630000000    -0.187112   
N50      N      0.388220000000     0.872520000000     0.468310000000    -0.188136   
N51      N      0.846660000000     0.538360000000     0.998260000000    -0.189543   
N52      N      0.862430000000     0.546360000000     0.101430000000    -0.187926   
N53      N      0.871780000000     0.451620000000     0.383080000000    -0.189612   
N54      N      0.852940000000     0.364980000000     0.435300000000    -0.189105   
N55      N      0.651930000000     0.370730000000     0.203030000000    -0.187669   
N56      N      0.729500000000     0.436160000000     0.224650000000    -0.188566   
N57      N      0.721890000000     0.651510000000     0.230740000000    -0.185476   
N58      N      0.646730000000     0.721930000000     0.217480000000    -0.188698   
N59      N      0.862860000000     0.651130000000     0.379460000000    -0.186608   
N60      N      0.879380000000     0.708040000000     0.465190000000    -0.186246   
N61      N      0.000630000000     0.542780000000     0.254640000000    -0.190448   
N62      N      0.099900000000     0.542910000000     0.283610000000    -0.190683   
N63      N      0.235350000000     0.534960000000     0.117690000000    -0.187114   
N64      N      0.253640000000     0.539280000000     0.013800000000    -0.187183   
N65      N      0.374520000000     0.433580000000     0.242970000000    -0.185287   
N66      N      0.451460000000     0.372110000000     0.209880000000    -0.188617   
N67      N      0.209980000000     0.375380000000     0.481750000000    -0.182252   
N68      N      0.232030000000     0.431810000000     0.396450000000    -0.186735   
N69      N      0.371980000000     0.646390000000     0.244490000000    -0.18592    
N70      N      0.449980000000     0.712860000000     0.224300000000    -0.186699   
N71      N      0.224280000000     0.634500000000     0.397680000000    -0.18769    
N72      N      0.239940000000     0.719340000000     0.454530000000    -0.186956   
O1       O      0.335090000000     0.593860000000     0.299750000000    -0.504396   
O2       O      0.213590000000     0.465760000000     0.319960000000    -0.501834   
O3       O      0.296440000000     0.609500000000     0.230130000000    -0.50268    
O4       O      0.245080000000     0.626130000000     0.315430000000    -0.50651    
O5       O      0.346260000000     0.506280000000     0.276600000000    -0.502262   
O6       O      0.169480000000     0.506470000000     0.251360000000    -0.509524   
O7       O      0.258080000000     0.537570000000     0.277630000000    -0.864907   
O8       O      0.250690000000     0.496510000000     0.192510000000    -0.502533   
O9       O      0.221240000000     0.571460000000     0.193290000000    -0.508831   
O10      O      0.265110000000     0.566970000000     0.366600000000    -0.50475    
O11      O      0.175120000000     0.580880000000     0.281800000000    -0.517652   
O12      O      0.292240000000     0.448790000000     0.258680000000    -0.500243   
O13      O      0.286370000000     0.479630000000     0.352090000000    -0.506541   
O14      O      0.809940000000     0.603860000000     0.333640000000    -0.512138   
O15      O      0.805740000000     0.471970000000     0.213620000000    -0.509899   
O16      O      0.882980000000     0.619230000000     0.302280000000    -0.49948    
O17      O      0.804470000000     0.635020000000     0.241550000000    -0.502467   
O18      O      0.831100000000     0.517620000000     0.349440000000    -0.511111   
O19      O      0.878760000000     0.512770000000     0.177410000000    -0.512874   
O20      O      0.840140000000     0.546410000000     0.260440000000    -0.867824   
O21      O      0.925070000000     0.506680000000     0.265830000000    -0.516519   
O22      O      0.927830000000     0.579620000000     0.232050000000    -0.510277   
O23      O      0.751200000000     0.576570000000     0.257570000000    -0.503411   
O24      O      0.845810000000     0.586370000000     0.175220000000    -0.502501   
O25      O      0.856340000000     0.459070000000     0.299700000000    -0.512346   
O26      O      0.763670000000     0.489280000000     0.280870000000    -0.51303    
O27      O      0.606960000000     0.761720000000     0.280910000000    -0.511861   
O28      O      0.471400000000     0.874680000000     0.302820000000    -0.499951   
O29      O      0.620300000000     0.802100000000     0.212150000000    -0.504737   
O30      O      0.634920000000     0.852800000000     0.298650000000    -0.504982   
O31      O      0.520180000000     0.745940000000     0.258720000000    -0.510075   
O32      O      0.509920000000     0.921480000000     0.233640000000    -0.497226   
O33      O      0.546400000000     0.835360000000     0.260650000000    -0.86501    
O34      O      0.505590000000     0.839670000000     0.175570000000    -0.504259   
O35      O      0.578410000000     0.874840000000     0.177150000000    -0.513441   
O36      O      0.576510000000     0.828570000000     0.349260000000    -0.509666   
O37      O      0.584740000000     0.920820000000     0.265280000000    -0.505104   
O38      O      0.458960000000     0.795690000000     0.240890000000    -0.494432   
O39      O      0.490320000000     0.803190000000     0.334300000000    -0.515425   
O40      O      0.497300000000     0.335370000000     0.270770000000    -0.510337   
O41      O      0.626420000000     0.215190000000     0.292760000000    -0.509906   
O42      O      0.478340000000     0.292030000000     0.204890000000    -0.502567   
O43      O      0.464040000000     0.248500000000     0.294650000000    -0.500725   
O44      O      0.583250000000     0.343720000000     0.244380000000    -0.514006   
O45      O      0.581730000000     0.167370000000     0.229620000000    -0.499112   
O46      O      0.551970000000     0.256850000000     0.252410000000    -0.864643   
O47      O      0.588710000000     0.244990000000     0.166220000000    -0.50851    
O48      O      0.514080000000     0.214390000000     0.172040000000    -0.503416   
O49      O      0.525960000000     0.270900000000     0.341900000000    -0.508976   
O50      O      0.508490000000     0.174850000000     0.264140000000    -0.503141   
O51      O      0.640640000000     0.289800000000     0.226450000000    -0.497611   
O52      O      0.613200000000     0.288800000000     0.322340000000    -0.513119   
O53      O      0.602260000000     0.320270000000     0.803540000000    -0.503673   
O54      O      0.474540000000     0.196320000000     0.793750000000    -0.503626   
O55      O      0.617030000000     0.288860000000     0.876840000000    -0.506454   
O56      O      0.636830000000     0.230840000000     0.797430000000    -0.505745   
O57      O      0.513540000000     0.332160000000     0.822820000000    -0.50451    
O58      O      0.515760000000     0.160890000000     0.867450000000    -0.5085     
O59      O      0.546210000000     0.245550000000     0.831710000000    -0.866841   
O60      O      0.503800000000     0.247680000000     0.916190000000    -0.506596   
O61      O      0.579030000000     0.218100000000     0.919990000000    -0.508664   
O62      O      0.577780000000     0.243570000000     0.743390000000    -0.504572   
O63      O      0.590680000000     0.163830000000     0.836490000000    -0.514582   
O64      O      0.456050000000     0.279960000000     0.845350000000    -0.505168   
O65      O      0.489390000000     0.264390000000     0.753460000000    -0.506684   
O66      O      0.768070000000     0.271910000000     0.607130000000    -0.513283   
O67      O      0.875580000000     0.289280000000     0.466510000000    -0.50478    
O68      O      0.807390000000     0.202930000000     0.619520000000    -0.49947    
O69      O      0.857430000000     0.289650000000     0.631750000000    -0.501027   
O70      O      0.748310000000     0.246820000000     0.521290000000    -0.512247   
O71      O      0.925190000000     0.223610000000     0.506480000000    -0.502598   
O72      O      0.838970000000     0.249460000000     0.544120000000    -0.870242   
O73      O      0.844610000000     0.164190000000     0.505360000000    -0.507604   
O74      O      0.881790000000     0.168430000000     0.577460000000    -0.509374   
O75      O      0.833450000000     0.338100000000     0.571640000000    -0.507492   
O76      O      0.924660000000     0.257900000000     0.580240000000    -0.509572   
O77      O      0.796990000000     0.226090000000     0.459210000000    -0.498529   
O78      O      0.803640000000     0.319920000000     0.486500000000    -0.521862   
O79      O      0.312680000000     0.315570000000     0.610830000000    -0.485339   
O80      O      0.304200000000     0.246330000000     0.477300000000    -0.496604   
O81      O      0.239010000000     0.294360000000     0.642280000000    -0.496845   
O82      O      0.292310000000     0.211190000000     0.638530000000    -0.510846   
O83      O      0.261790000000     0.333950000000     0.535300000000    -0.485911   
O84      O      0.262660000000     0.169090000000     0.520020000000    -0.47597    
O85      O      0.252210000000     0.250550000000     0.563070000000    -0.997865   
O86      O      0.174640000000     0.214390000000     0.520480000000    -0.460711   
O87      O      0.169520000000     0.251500000000     0.594390000000    -0.489911   
O88      O      0.339860000000     0.230300000000     0.573760000000    -0.494265   
O89      O      0.223030000000     0.168070000000     0.592960000000    -0.494531   
O90      O      0.214610000000     0.290670000000     0.485020000000    -0.485908   
O91      O      0.347880000000     0.304820000000     0.517880000000    -0.502348   
O92      O      0.343890000000     0.485510000000     0.831590000000    -0.516551   
O93      O      0.223900000000     0.615610000000     0.814170000000    -0.500637   
O94      O      0.304110000000     0.468670000000     0.900120000000    -0.507441   
O95      O      0.252990000000     0.454400000000     0.813970000000    -0.50114    
O96      O      0.355470000000     0.570980000000     0.856520000000    -0.516422   
O97      O      0.179140000000     0.573890000000     0.882990000000    -0.499783   
O98      O      0.266890000000     0.541740000000     0.853990000000    -0.863576   
O99      O      0.261940000000     0.580710000000     0.939920000000    -0.505924   
O100     O      0.230540000000     0.506620000000     0.938290000000    -0.503895   
O101     O      0.275920000000     0.513860000000     0.764220000000    -0.509873   
O102     O      0.182270000000     0.500220000000     0.850060000000    -0.501983   
O103     O      0.303340000000     0.629600000000     0.875440000000    -0.499673   
O104     O      0.296480000000     0.600570000000     0.781600000000    -0.512606   
O105     O      0.293680000000     0.762960000000     0.502470000000    -0.517633   
O106     O      0.299420000000     0.877550000000     0.638020000000    -0.506427   
O107     O      0.222640000000     0.797180000000     0.484860000000    -0.497806   
O108     O      0.305860000000     0.853050000000     0.474250000000    -0.501958   
O109     O      0.266440000000     0.745850000000     0.588380000000    -0.507513   
O110     O      0.230440000000     0.919420000000     0.594530000000    -0.503723   
O111     O      0.264270000000     0.834640000000     0.561200000000    -0.868475   
O112     O      0.177440000000     0.835140000000     0.597750000000    -0.507861   
O113     O      0.180400000000     0.869100000000     0.524110000000    -0.504648   
O114     O      0.354730000000     0.833310000000     0.536050000000    -0.507325   
O115     O      0.267430000000     0.919010000000     0.522210000000    -0.506556   
O116     O      0.242000000000     0.795350000000     0.648020000000    -0.497142   
O117     O      0.335710000000     0.807610000000     0.622210000000    -0.521778   
O118     O      0.768760000000     0.802410000000     0.494220000000    -0.523566   
O119     O      0.882290000000     0.793270000000     0.630060000000    -0.505237   
O120     O      0.802230000000     0.872740000000     0.476800000000    -0.505554   
O121     O      0.861590000000     0.790490000000     0.468840000000    -0.496677   
O122     O      0.752220000000     0.835970000000     0.579290000000    -0.501881   
O123     O      0.929110000000     0.859340000000     0.589400000000    -0.513842   
O124     O      0.841920000000     0.833060000000     0.553790000000    -0.867983   
O125     O      0.848390000000     0.918140000000     0.593680000000    -0.516538   
O126     O      0.871400000000     0.917050000000     0.515410000000    -0.513089   
O127     O      0.837650000000     0.743260000000     0.530750000000    -0.503461   
O128     O      0.927120000000     0.834080000000     0.511970000000    -0.515972   
O129     O      0.802820000000     0.856400000000     0.639930000000    -0.494727   
O130     O      0.808610000000     0.764520000000     0.616310000000    -0.520946   
O131     O      0.495990000000     0.761780000000     0.814240000000    -0.518123   
O132     O      0.628110000000     0.880670000000     0.806510000000    -0.496466   
O133     O      0.479810000000     0.794760000000     0.886370000000    -0.518242   
O134     O      0.467920000000     0.857580000000     0.808410000000    -0.508532   
O135     O      0.583830000000     0.745510000000     0.836900000000    -0.503667   
O136     O      0.590990000000     0.916250000000     0.884090000000    -0.513844   
O137     O      0.555190000000     0.833960000000     0.844620000000    -0.869623   
O138     O      0.598000000000     0.828000000000     0.928310000000    -0.507634   
O139     O      0.522780000000     0.858410000000     0.933000000000    -0.512405   
O140     O      0.525920000000     0.836140000000     0.755640000000    -0.512759   
O141     O      0.516300000000     0.918790000000     0.853140000000    -0.520271   
O142     O      0.644180000000     0.795600000000     0.856540000000    -0.503326   
O143     O      0.612200000000     0.811550000000     0.768200000000    -0.512085   
O144     O      0.767730000000     0.597240000000     0.816790000000    -0.514807   
O145     O      0.882280000000     0.462920000000     0.798360000000    -0.5027     
O146     O      0.805450000000     0.610060000000     0.887240000000    -0.509176   
O147     O      0.859820000000     0.624880000000     0.802600000000    -0.503462   
O148     O      0.751380000000     0.511220000000     0.839110000000    -0.511818   
O149     O      0.927960000000     0.501310000000     0.868380000000    -0.496946   
O150     O      0.841420000000     0.537210000000     0.839850000000    -0.866102   
O151     O      0.843740000000     0.496130000000     0.924510000000    -0.509448   
O152     O      0.877030000000     0.569360000000     0.925320000000    -0.512686   
O153     O      0.837020000000     0.566750000000     0.751110000000    -0.510396   
O154     O      0.927090000000     0.576240000000     0.838640000000    -0.508307   
O155     O      0.801290000000     0.450630000000     0.858470000000    -0.494562   
O156     O      0.810730000000     0.481190000000     0.765480000000    -0.517761   


