data_structure

_audit_creation_method RASPA-1.0
_audit_creation_date 2023-6-4
_audit_author_name 'Poobodin Mano'

_cell_length_a    27.6218
_cell_length_b    27.4406
_cell_length_c    31.9281
_cell_angle_alpha 90
_cell_angle_beta  90
_cell_angle_gamma 120
_cell_volume      20958

_symmetry_cell_setting          triclinic
_symmetry_space_group_name_Hall 'P 1'
_symmetry_space_group_name_H-M  'P 1'
_symmetry_Int_Tables_number     1

_symmetry_equiv_pos_as_xyz 'x,y,z'

loop_
_atom_site_label
_atom_site_type_symbol
_atom_site_fract_x
_atom_site_fract_y
_atom_site_fract_z
_atom_site_charge
C1       C      0.397670000000     0.560810000000     0.376470000000     0.517389   
C2       C      0.396730000000     0.561810000000     0.263420000000     0.518978   
C3       C      0.265660000000     0.402620000000     0.260310000000     0.535426   
C4       C      0.413970000000     0.422360000000     0.376010000000     0.523414   
C5       C      0.421050000000     0.433820000000     0.262600000000     0.52107    
C6       C      0.259340000000     0.409320000000     0.372860000000     0.525676   
C7       C      0.478900000000     0.352210000000     0.015270000000     0.522355   
C8       C      0.493080000000     0.361550000000     0.127030000000     0.534203   
C9       C      0.621560000000     0.334060000000     0.124830000000     0.520936   
C10      C      0.472760000000     0.203180000000     0.012290000000     0.513243   
C11      C      0.471330000000     0.204000000000     0.125160000000     0.519824   
C12      C      0.624860000000     0.346650000000     0.012100000000     0.522492   
C13      C      0.684630000000     0.420460000000     0.461310000000    -0.00717066 
C14      C      0.193520000000     0.334320000000     0.970440000000    -0.0196779  
C15      C      0.687520000000     0.415470000000     0.414010000000    -0.00635705 
C16      C      0.197580000000     0.330170000000     0.922550000000     0.0376305  
C17      C      0.671680000000     0.403900000000     0.179920000000    -0.00662034 
C18      C      0.657850000000     0.306240000000     0.185230000000    -0.0203162  
C19      C      0.229230000000     0.427570000000     0.199830000000    -0.00666521 
C20      C      0.216480000000     0.330180000000     0.204400000000     0.0395397  
C21      C      0.456260000000     0.156640000000     0.235480000000    -0.0082837  
C22      C      0.393610000000     0.574290000000     0.187760000000    -0.0194839  
C23      C      0.451140000000     0.191490000000     0.200100000000    -0.00417346 
C24      C      0.437130000000     0.609320000000     0.154030000000     0.0401919  
C25      C      0.483990000000     0.640360000000     0.963170000000    -0.00711836 
C26      C      0.390000000000     0.132580000000     0.472600000000    -0.0196162  
C27      C      0.475030000000     0.634910000000     0.916170000000    -0.00606112 
C28      C      0.379330000000     0.122760000000     0.424910000000     0.0372348  
C29      C      0.403770000000     0.339340000000     0.466590000000    -0.00686225 
C30      C      0.491260000000     0.433340000000     0.973030000000    -0.0199959  
C31      C      0.406920000000     0.345170000000     0.419150000000    -0.00702587 
C32      C      0.493250000000     0.440110000000     0.925010000000     0.0380194  
C33      C      0.398730000000     0.363640000000     0.207250000000    -0.00584007 
C34      C      0.481280000000     0.460910000000     0.199960000000    -0.0201524  
C35      C      0.431750000000     0.339070000000     0.187060000000    -0.00729497 
C36      C      0.515690000000     0.436720000000     0.180400000000     0.0398264  
C37      C      0.397670000000     0.560810000000     0.876470000000     0.517386   
C38      C      0.396730000000     0.561810000000     0.763420000000     0.518968   
C39      C      0.265660000000     0.402620000000     0.760310000000     0.535389   
C40      C      0.413970000000     0.422360000000     0.876010000000     0.523408   
C41      C      0.421050000000     0.433820000000     0.762600000000     0.521062   
C42      C      0.259340000000     0.409320000000     0.872860000000     0.525639   
C43      C      0.478900000000     0.352210000000     0.515270000000     0.522881   
C44      C      0.493080000000     0.361550000000     0.627030000000     0.53422    
C45      C      0.621560000000     0.334060000000     0.624830000000     0.520956   
C46      C      0.472760000000     0.203180000000     0.512290000000     0.513771   
C47      C      0.471330000000     0.204000000000     0.625160000000     0.519839   
C48      C      0.624860000000     0.346650000000     0.512100000000     0.523022   
C49      C      0.684630000000     0.420460000000     0.961310000000    -0.00718809 
C50      C      0.193520000000     0.334320000000     0.470440000000    -0.019656   
C51      C      0.687520000000     0.415470000000     0.914010000000    -0.00634523 
C52      C      0.197580000000     0.330170000000     0.422550000000     0.0376212  
C53      C      0.671680000000     0.403900000000     0.679920000000    -0.00661504 
C54      C      0.657850000000     0.306240000000     0.685230000000    -0.0203097  
C55      C      0.229230000000     0.427570000000     0.699830000000    -0.00667087 
C56      C      0.216480000000     0.330180000000     0.704400000000     0.0395292  
C57      C      0.456260000000     0.156640000000     0.735480000000    -0.00828496 
C58      C      0.393610000000     0.574290000000     0.687760000000    -0.0194836  
C59      C      0.451140000000     0.191490000000     0.700100000000    -0.0041749  
C60      C      0.437130000000     0.609320000000     0.654030000000     0.0401878  
C61      C      0.483990000000     0.640360000000     0.463170000000    -0.00711125 
C62      C      0.390000000000     0.132580000000     0.972600000000    -0.0196228  
C63      C      0.475030000000     0.634910000000     0.416180000000    -0.00605238 
C64      C      0.379330000000     0.122760000000     0.924910000000     0.0372395  
C65      C      0.403770000000     0.339340000000     0.966590000000    -0.00687631 
C66      C      0.491260000000     0.433340000000     0.473040000000    -0.0199778  
C67      C      0.406920000000     0.345170000000     0.919140000000    -0.00702904 
C68      C      0.493250000000     0.440110000000     0.425010000000     0.0380062  
C69      C      0.398730000000     0.363640000000     0.707250000000    -0.00584337 
C70      C      0.481280000000     0.460910000000     0.699960000000    -0.0201514  
C71      C      0.431750000000     0.339070000000     0.687060000000    -0.00729128 
C72      C      0.515690000000     0.436720000000     0.680400000000     0.0398148  
C73      C      0.397670000000     0.060810000000     0.376470000000     0.517318   
C74      C      0.396730000000     0.061810000000     0.263420000000     0.518963   
C75      C      0.265660000000     0.902610000000     0.260310000000     0.53556    
C76      C      0.413970000000     0.922350000000     0.376010000000     0.523367   
C77      C      0.421050000000     0.933820000000     0.262600000000     0.521261   
C78      C      0.259340000000     0.909320000000     0.372860000000     0.5255     
C79      C      0.478900000000     0.852220000000     0.015270000000     0.522288   
C80      C      0.493080000000     0.861550000000     0.127030000000     0.534198   
C81      C      0.621560000000     0.834060000000     0.124830000000     0.520942   
C82      C      0.472770000000     0.703190000000     0.012290000000     0.513454   
C83      C      0.471340000000     0.703990000000     0.125160000000     0.519761   
C84      C      0.624860000000     0.846650000000     0.012100000000     0.522686   
C85      C      0.684630000000     0.920460000000     0.461310000000    -0.00711916 
C86      C      0.193520000000     0.834320000000     0.970440000000    -0.0196696  
C87      C      0.687520000000     0.915470000000     0.414010000000    -0.00638156 
C88      C      0.197580000000     0.830170000000     0.922550000000     0.037625   
C89      C      0.671680000000     0.903890000000     0.179920000000    -0.00652706 
C90      C      0.657850000000     0.806240000000     0.185230000000    -0.0203027  
C91      C      0.229230000000     0.927580000000     0.199830000000    -0.00676432 
C92      C      0.216480000000     0.830180000000     0.204400000000     0.0395311  
C93      C      0.456260000000     0.656650000000     0.235480000000    -0.00833394 
C94      C      0.393610000000     0.074300000000     0.187760000000    -0.0194832  
C95      C      0.451140000000     0.691490000000     0.200100000000    -0.00413858 
C96      C      0.437120000000     0.109320000000     0.154030000000     0.0401902  
C97      C      0.483990000000     0.140360000000     0.963170000000    -0.0071077  
C98      C      0.390000000000     0.632580000000     0.472600000000    -0.0196127  
C99      C      0.475030000000     0.134910000000     0.916170000000    -0.00608022 
C100     C      0.379330000000     0.622760000000     0.424910000000     0.037221   
C101     C      0.403770000000     0.839340000000     0.466590000000    -0.00684894 
C102     C      0.491260000000     0.933330000000     0.973030000000    -0.0199308  
C103     C      0.406920000000     0.845170000000     0.419150000000    -0.00703157 
C104     C      0.493260000000     0.940110000000     0.925010000000     0.0380351  
C105     C      0.398730000000     0.863640000000     0.207250000000    -0.00583108 
C106     C      0.481270000000     0.960900000000     0.199960000000    -0.0200891  
C107     C      0.431750000000     0.839070000000     0.187060000000    -0.00729959 
C108     C      0.515690000000     0.936720000000     0.180400000000     0.0397985  
C109     C      0.397670000000     0.060810000000     0.876470000000     0.517314   
C110     C      0.396730000000     0.061810000000     0.763420000000     0.518953   
C111     C      0.265660000000     0.902610000000     0.760310000000     0.535523   
C112     C      0.413970000000     0.922350000000     0.876010000000     0.523361   
C113     C      0.421050000000     0.933820000000     0.762600000000     0.521252   
C114     C      0.259340000000     0.909320000000     0.872860000000     0.525463   
C115     C      0.478900000000     0.852220000000     0.515270000000     0.522813   
C116     C      0.493080000000     0.861550000000     0.627030000000     0.534214   
C117     C      0.621560000000     0.834060000000     0.624830000000     0.520962   
C118     C      0.472770000000     0.703190000000     0.512290000000     0.513982   
C119     C      0.471340000000     0.703990000000     0.625160000000     0.519776   
C120     C      0.624860000000     0.846650000000     0.512100000000     0.523215   
C121     C      0.684630000000     0.920460000000     0.961310000000    -0.00713648 
C122     C      0.193520000000     0.834320000000     0.470440000000    -0.0196477  
C123     C      0.687520000000     0.915470000000     0.914010000000    -0.00636977 
C124     C      0.197580000000     0.830170000000     0.422550000000     0.0376157  
C125     C      0.671680000000     0.903890000000     0.679920000000    -0.00652175 
C126     C      0.657850000000     0.806240000000     0.685230000000    -0.0202962  
C127     C      0.229230000000     0.927580000000     0.699830000000    -0.00676998 
C128     C      0.216480000000     0.830180000000     0.704400000000     0.0395206  
C129     C      0.456260000000     0.656650000000     0.735480000000    -0.00833519 
C130     C      0.393610000000     0.074300000000     0.687760000000    -0.0194829  
C131     C      0.451140000000     0.691490000000     0.700100000000    -0.00414001 
C132     C      0.437120000000     0.109320000000     0.654030000000     0.0401861  
C133     C      0.483990000000     0.140360000000     0.463170000000    -0.00710057 
C134     C      0.390000000000     0.632580000000     0.972600000000    -0.0196194  
C135     C      0.475030000000     0.134910000000     0.416180000000    -0.00607149 
C136     C      0.379330000000     0.622760000000     0.924910000000     0.0372257  
C137     C      0.403770000000     0.839340000000     0.966590000000    -0.00686301 
C138     C      0.491260000000     0.933330000000     0.473040000000    -0.0199126  
C139     C      0.406920000000     0.845170000000     0.919140000000    -0.00703474 
C140     C      0.493260000000     0.940110000000     0.425010000000     0.038022   
C141     C      0.398730000000     0.863640000000     0.707250000000    -0.00583438 
C142     C      0.481270000000     0.960900000000     0.699960000000    -0.020088   
C143     C      0.431750000000     0.839070000000     0.687060000000    -0.0072959  
C144     C      0.515690000000     0.936720000000     0.680400000000     0.0397869  
C145     C      0.897670000000     0.560810000000     0.376470000000     0.517409   
C146     C      0.896730000000     0.561810000000     0.263420000000     0.518975   
C147     C      0.765660000000     0.402620000000     0.260310000000     0.535548   
C148     C      0.913970000000     0.422360000000     0.376010000000     0.523249   
C149     C      0.921050000000     0.433820000000     0.262600000000     0.520836   
C150     C      0.759340000000     0.409320000000     0.372860000000     0.525663   
C151     C      0.978900000000     0.352210000000     0.015270000000     0.520328   
C152     C      0.993090000000     0.361550000000     0.127030000000     0.532296   
C153     C      0.121560000000     0.334060000000     0.124830000000     0.520935   
C154     C      0.972760000000     0.203180000000     0.012290000000     0.511338   
C155     C      0.971330000000     0.204000000000     0.125160000000     0.519782   
C156     C      0.124860000000     0.346650000000     0.012100000000     0.522552   
C157     C      0.184630000000     0.420460000000     0.461310000000    -0.00713981 
C158     C      0.693520000000     0.334320000000     0.970440000000    -0.0197053  
C159     C      0.187520000000     0.415470000000     0.414010000000    -0.00638529 
C160     C      0.697580000000     0.330170000000     0.922550000000     0.0376641  
C161     C      0.171680000000     0.403900000000     0.179920000000    -0.00664662 
C162     C      0.157850000000     0.306240000000     0.185230000000    -0.0203425  
C163     C      0.729220000000     0.427570000000     0.199830000000    -0.00669416 
C164     C      0.716480000000     0.330180000000     0.204400000000     0.0395491  
C165     C      0.956260000000     0.156640000000     0.235480000000    -0.00825734 
C166     C      0.893610000000     0.574290000000     0.187760000000    -0.0195212  
C167     C      0.951140000000     0.191490000000     0.200100000000    -0.00420918 
C168     C      0.937130000000     0.609320000000     0.154030000000     0.040317   
C169     C      0.983990000000     0.640360000000     0.963170000000    -0.00909521 
C170     C      0.890000000000     0.132580000000     0.472600000000    -0.0197329  
C171     C      0.975030000000     0.634910000000     0.916170000000    -0.00544357 
C172     C      0.879330000000     0.122760000000     0.424910000000     0.0373034  
C173     C      0.903770000000     0.339340000000     0.466590000000    -0.00694405 
C174     C      0.991260000000     0.433340000000     0.973030000000    -0.021212   
C175     C      0.906920000000     0.345170000000     0.419150000000    -0.00704275 
C176     C      0.993250000000     0.440110000000     0.925010000000     0.0357527  
C177     C      0.898730000000     0.363640000000     0.207250000000    -0.00601724 
C178     C      0.981280000000     0.460910000000     0.199960000000    -0.0233843  
C179     C      0.931750000000     0.339070000000     0.187060000000    -0.00725671 
C180     C      0.015690000000     0.436720000000     0.180400000000     0.0422527  
C181     C      0.897670000000     0.560810000000     0.876470000000     0.517405   
C182     C      0.896730000000     0.561810000000     0.763420000000     0.518965   
C183     C      0.765660000000     0.402620000000     0.760310000000     0.535512   
C184     C      0.913970000000     0.422360000000     0.876010000000     0.523243   
C185     C      0.921050000000     0.433820000000     0.762600000000     0.520827   
C186     C      0.759340000000     0.409320000000     0.872860000000     0.525626   
C187     C      0.978900000000     0.352210000000     0.515270000000     0.520856   
C188     C      0.993090000000     0.361550000000     0.627030000000     0.532315   
C189     C      0.121560000000     0.334060000000     0.624830000000     0.520955   
C190     C      0.972760000000     0.203180000000     0.512290000000     0.511868   
C191     C      0.971330000000     0.204000000000     0.625160000000     0.519797   
C192     C      0.124860000000     0.346650000000     0.512100000000     0.523079   
C193     C      0.184630000000     0.420460000000     0.961310000000    -0.00715723 
C194     C      0.693520000000     0.334320000000     0.470440000000    -0.0196833  
C195     C      0.187520000000     0.415470000000     0.914010000000    -0.00637347 
C196     C      0.697580000000     0.330170000000     0.422550000000     0.0376549  
C197     C      0.171680000000     0.403900000000     0.679920000000    -0.0066413  
C198     C      0.157850000000     0.306240000000     0.685230000000    -0.020336   
C199     C      0.729220000000     0.427570000000     0.699830000000    -0.00669979 
C200     C      0.716480000000     0.330180000000     0.704400000000     0.0395386  
C201     C      0.956260000000     0.156640000000     0.735480000000    -0.00825863 
C202     C      0.893610000000     0.574290000000     0.687760000000    -0.0195209  
C203     C      0.951140000000     0.191490000000     0.700100000000    -0.00421058 
C204     C      0.937130000000     0.609320000000     0.654030000000     0.0403128  
C205     C      0.983990000000     0.640360000000     0.463170000000    -0.0090935  
C206     C      0.890000000000     0.132580000000     0.972600000000    -0.0197395  
C207     C      0.975030000000     0.634910000000     0.416180000000    -0.00543305 
C208     C      0.879330000000     0.122760000000     0.924910000000     0.037308   
C209     C      0.903770000000     0.339340000000     0.966590000000    -0.00695813 
C210     C      0.991260000000     0.433340000000     0.473040000000    -0.0211982  
C211     C      0.906920000000     0.345170000000     0.919140000000    -0.00704584 
C212     C      0.993250000000     0.440110000000     0.425010000000     0.0357342  
C213     C      0.898730000000     0.363640000000     0.707250000000    -0.00602032 
C214     C      0.981280000000     0.460910000000     0.699960000000    -0.0233791  
C215     C      0.931750000000     0.339070000000     0.687060000000    -0.00725307 
C216     C      0.015690000000     0.436720000000     0.680400000000     0.0422381  
C217     C      0.897670000000     0.060810000000     0.376470000000     0.517514   
C218     C      0.896730000000     0.061810000000     0.263420000000     0.518961   
C219     C      0.765660000000     0.902610000000     0.260310000000     0.535552   
C220     C      0.913960000000     0.922350000000     0.376010000000     0.523444   
C221     C      0.921050000000     0.933820000000     0.262600000000     0.520981   
C222     C      0.759340000000     0.909320000000     0.372860000000     0.525524   
C223     C      0.978900000000     0.852220000000     0.015270000000     0.52026    
C224     C      0.993080000000     0.861550000000     0.127030000000     0.53225    
C225     C      0.121560000000     0.834060000000     0.124830000000     0.520933   
C226     C      0.972770000000     0.703190000000     0.012290000000     0.511391   
C227     C      0.971340000000     0.703990000000     0.125160000000     0.519708   
C228     C      0.124870000000     0.846650000000     0.012100000000     0.522672   
C229     C      0.184630000000     0.920460000000     0.461310000000    -0.00707728 
C230     C      0.693520000000     0.834320000000     0.970440000000    -0.0196983  
C231     C      0.187520000000     0.915470000000     0.414010000000    -0.00641293 
C232     C      0.697580000000     0.830170000000     0.922550000000     0.0376591  
C233     C      0.171680000000     0.903890000000     0.179920000000    -0.00654748 
C234     C      0.157850000000     0.806240000000     0.185230000000    -0.0203412  
C235     C      0.729230000000     0.927580000000     0.199830000000    -0.00678189 
C236     C      0.716480000000     0.830180000000     0.204400000000     0.0395333  
C237     C      0.956260000000     0.656650000000     0.235480000000    -0.00831797 
C238     C      0.893610000000     0.074300000000     0.187760000000    -0.0195285  
C239     C      0.951140000000     0.691490000000     0.200100000000    -0.00417034 
C240     C      0.937130000000     0.109320000000     0.154030000000     0.0403237  
C241     C      0.983990000000     0.140360000000     0.963170000000    -0.00908119 
C242     C      0.890000000000     0.632580000000     0.472600000000    -0.019734   
C243     C      0.975030000000     0.134910000000     0.916170000000    -0.00545702 
C244     C      0.879330000000     0.622760000000     0.424910000000     0.0372831  
C245     C      0.903770000000     0.839340000000     0.466590000000    -0.00692614 
C246     C      0.991260000000     0.933330000000     0.973030000000    -0.0211673  
C247     C      0.906920000000     0.845170000000     0.419150000000    -0.00706522 
C248     C      0.993250000000     0.940110000000     0.925010000000     0.0358139  
C249     C      0.898730000000     0.863640000000     0.207250000000    -0.00601223 
C250     C      0.981270000000     0.960900000000     0.199960000000    -0.0233219  
C251     C      0.931750000000     0.839070000000     0.187060000000    -0.00725845 
C252     C      0.015690000000     0.936720000000     0.180400000000     0.0422274  
C253     C      0.897670000000     0.060810000000     0.876470000000     0.517511   
C254     C      0.896730000000     0.061810000000     0.763420000000     0.518951   
C255     C      0.765660000000     0.902610000000     0.760310000000     0.535515   
C256     C      0.913960000000     0.922350000000     0.876010000000     0.523438   
C257     C      0.921050000000     0.933820000000     0.762600000000     0.520973   
C258     C      0.759340000000     0.909320000000     0.872860000000     0.525487   
C259     C      0.978900000000     0.852220000000     0.515270000000     0.520788   
C260     C      0.993080000000     0.861550000000     0.627030000000     0.532269   
C261     C      0.121560000000     0.834060000000     0.624830000000     0.520953   
C262     C      0.972770000000     0.703190000000     0.512290000000     0.511922   
C263     C      0.971340000000     0.703990000000     0.625160000000     0.519723   
C264     C      0.124870000000     0.846650000000     0.512100000000     0.5232     
C265     C      0.184630000000     0.920460000000     0.961310000000    -0.00709461 
C266     C      0.693520000000     0.834320000000     0.470440000000    -0.0196763  
C267     C      0.187520000000     0.915470000000     0.914010000000    -0.00640115 
C268     C      0.697580000000     0.830170000000     0.422550000000     0.0376498  
C269     C      0.171680000000     0.903890000000     0.679920000000    -0.00654215 
C270     C      0.157850000000     0.806240000000     0.685230000000    -0.0203347  
C271     C      0.729230000000     0.927580000000     0.699830000000    -0.00678753 
C272     C      0.716480000000     0.830180000000     0.704400000000     0.0395228  
C273     C      0.956260000000     0.656650000000     0.735480000000    -0.00831926 
C274     C      0.893610000000     0.074300000000     0.687760000000    -0.0195282  
C275     C      0.951140000000     0.691490000000     0.700100000000    -0.00417174 
C276     C      0.937130000000     0.109320000000     0.654030000000     0.0403195  
C277     C      0.983990000000     0.140360000000     0.463170000000    -0.00907944 
C278     C      0.890000000000     0.632580000000     0.972600000000    -0.0197407  
C279     C      0.975030000000     0.134910000000     0.416180000000    -0.00544651 
C280     C      0.879330000000     0.622760000000     0.924910000000     0.0372878  
C281     C      0.903770000000     0.839340000000     0.966590000000    -0.00694023 
C282     C      0.991260000000     0.933330000000     0.473040000000    -0.0211535  
C283     C      0.906920000000     0.845170000000     0.919140000000    -0.00706832 
C284     C      0.993250000000     0.940110000000     0.425010000000     0.0357954  
C285     C      0.898730000000     0.863640000000     0.707250000000    -0.00601531 
C286     C      0.981270000000     0.960900000000     0.699960000000    -0.0233167  
C287     C      0.931750000000     0.839070000000     0.687060000000    -0.00725481 
C288     C      0.015690000000     0.936720000000     0.680400000000     0.0422128  
Fe1      Fe     0.317230000000     0.492230000000     0.316540000000     1.35138    
Fe2      Fe     0.332210000000     0.395070000000     0.319140000000     1.35977    
Fe3      Fe     0.428230000000     0.507960000000     0.321280000000     1.34774    
Fe4      Fe     0.567890000000     0.370520000000     0.068780000000     1.35915    
Fe5      Fe     0.555600000000     0.259110000000     0.066530000000     1.34802    
Fe6      Fe     0.458050000000     0.271020000000     0.071620000000     1.35183    
Fe7      Fe     0.317230000000     0.492230000000     0.816540000000     1.35123    
Fe8      Fe     0.332210000000     0.395070000000     0.819140000000     1.35961    
Fe9      Fe     0.428230000000     0.507960000000     0.821280000000     1.34773    
Fe10     Fe     0.567890000000     0.370520000000     0.568780000000     1.35927    
Fe11     Fe     0.555600000000     0.259110000000     0.566530000000     1.34814    
Fe12     Fe     0.458050000000     0.271020000000     0.571620000000     1.35195    
Fe13     Fe     0.317230000000     0.992230000000     0.316540000000     1.35138    
Fe14     Fe     0.332210000000     0.895070000000     0.319140000000     1.35997    
Fe15     Fe     0.428230000000     0.007960000000     0.321280000000     1.34753    
Fe16     Fe     0.567890000000     0.870520000000     0.068780000000     1.35914    
Fe17     Fe     0.555600000000     0.759110000000     0.066530000000     1.34809    
Fe18     Fe     0.458050000000     0.771020000000     0.071620000000     1.35178    
Fe19     Fe     0.317230000000     0.992230000000     0.816540000000     1.35123    
Fe20     Fe     0.332210000000     0.895070000000     0.819140000000     1.35981    
Fe21     Fe     0.428230000000     0.007960000000     0.821280000000     1.34752    
Fe22     Fe     0.567890000000     0.870520000000     0.568780000000     1.35926    
Fe23     Fe     0.555600000000     0.759110000000     0.566530000000     1.34821    
Fe24     Fe     0.458050000000     0.771020000000     0.571620000000     1.35189    
Fe25     Fe     0.817230000000     0.492230000000     0.316540000000     1.35143    
Fe26     Fe     0.832210000000     0.395070000000     0.319140000000     1.35974    
Fe27     Fe     0.928230000000     0.507960000000     0.321280000000     1.34746    
Fe28     Fe     0.067890000000     0.370520000000     0.068780000000     1.35881    
Fe29     Fe     0.055600000000     0.259110000000     0.066530000000     1.34882    
Fe30     Fe     0.958050000000     0.271020000000     0.071620000000     1.35023    
Fe31     Fe     0.817230000000     0.492230000000     0.816540000000     1.35128    
Fe32     Fe     0.832210000000     0.395070000000     0.819140000000     1.35959    
Fe33     Fe     0.928230000000     0.507960000000     0.821280000000     1.34745    
Fe34     Fe     0.067890000000     0.370520000000     0.568780000000     1.35893    
Fe35     Fe     0.055600000000     0.259110000000     0.566530000000     1.34894    
Fe36     Fe     0.958050000000     0.271020000000     0.571620000000     1.35035    
Fe37     Fe     0.817230000000     0.992230000000     0.316540000000     1.35136    
Fe38     Fe     0.832200000000     0.895070000000     0.319140000000     1.36005    
Fe39     Fe     0.928230000000     0.007960000000     0.321280000000     1.34727    
Fe40     Fe     0.067890000000     0.870520000000     0.068780000000     1.35873    
Fe41     Fe     0.055600000000     0.759110000000     0.066530000000     1.34886    
Fe42     Fe     0.958040000000     0.771020000000     0.071620000000     1.35003    
Fe43     Fe     0.817230000000     0.992230000000     0.816540000000     1.35121    
Fe44     Fe     0.832200000000     0.895070000000     0.819140000000     1.35989    
Fe45     Fe     0.928230000000     0.007960000000     0.821280000000     1.34726    
Fe46     Fe     0.067890000000     0.870520000000     0.568780000000     1.35885    
Fe47     Fe     0.055600000000     0.759110000000     0.566530000000     1.34899    
Fe48     Fe     0.958040000000     0.771020000000     0.571620000000     1.35015    
H1       H      0.644010000000     0.390090000000     0.402070000000     0.0394202  
H2       H      0.658020000000     0.439180000000     0.468580000000     0.0402803  
H3       H      0.154550000000     0.301590000000     0.910770000000     0.0328764  
H4       H      0.172180000000     0.291150000000     0.983960000000     0.0434097  
H5       H      0.705410000000     0.457950000000     0.399740000000     0.0392947  
H6       H      0.727490000000     0.449990000000     0.472950000000     0.0398262  
H7       H      0.236450000000     0.357600000000     0.983790000000     0.0428229  
H8       H      0.282390000000     0.316640000000     0.939350000000     0.0348741  
H9       H      0.260740000000     0.441780000000     0.174240000000     0.0377853  
H10      H      0.672630000000     0.435260000000     0.157380000000     0.0394755  
H11      H      0.246290000000     0.337070000000     0.178600000000     0.0293862  
H12      H      0.648490000000     0.268660000000     0.166030000000     0.044729   
H13      H      0.238420000000     0.465540000000     0.218440000000     0.0411432  
H14      H      0.641280000000     0.398210000000     0.204950000000     0.0409586  
H15      H      0.626320000000     0.292280000000     0.210830000000     0.0469406  
H16      H      0.259680000000     0.270520000000     0.230800000000     0.0319888  
H17      H      0.410150000000     0.189770000000     0.202550000000     0.0386172  
H18      H      0.450390000000     0.172160000000     0.266200000000     0.035658   
H19      H      0.417930000000     0.594290000000     0.122600000000     0.0253575  
H20      H      0.354820000000     0.576060000000     0.181970000000     0.0408568  
H21      H      0.484410000000     0.236320000000     0.203580000000     0.0395193  
H22      H      0.498950000000     0.162120000000     0.235410000000     0.0454057  
H23      H      0.382150000000     0.529260000000     0.185420000000     0.0435995  
H24      H      0.494290000000     0.565070000000     0.125220000000     0.031255   
H25      H      0.492060000000     0.677920000000     0.902940000000     0.0393724  
H26      H      0.529450000000     0.667050000000     0.969610000000     0.0390966  
H27      H      0.390990000000     0.164030000000     0.410380000000     0.0297917  
H28      H      0.369760000000     0.156240000000     0.484430000000     0.0426931  
H29      H      0.499660000000     0.616960000000     0.902350000000     0.035062   
H30      H      0.470300000000     0.597860000000     0.976260000000     0.0373695  
H31      H      0.370300000000     0.091150000000     0.488820000000     0.0442796  
H32      H      0.288330000000     0.094260000000     0.382860000000     0.0318368  
H33      H      0.430830000000     0.325340000000     0.407170000000     0.0389786  
H34      H      0.384050000000     0.294020000000     0.474890000000     0.0396105  
H35      H      0.520820000000     0.424730000000     0.912590000000     0.0329357  
H36      H      0.534770000000     0.454490000000     0.985370000000     0.0446116  
H37      H      0.364150000000     0.320980000000     0.405800000000     0.0360506  
H38      H      0.376170000000     0.354970000000     0.478480000000     0.0374349  
H39      H      0.469750000000     0.454680000000     0.986830000000     0.0424844  
H40      H      0.502910000000     0.538180000000     0.937760000000     0.03686    
H41      H      0.449410000000     0.324890000000     0.212470000000     0.0385933  
H42      H      0.368850000000     0.332800000000     0.230200000000     0.0397901  
H43      H      0.540260000000     0.431420000000     0.205780000000     0.0307251  
H44      H      0.509690000000     0.499400000000     0.218140000000     0.0453762  
H45      H      0.402500000000     0.300990000000     0.168850000000     0.0402041  
H46      H      0.373630000000     0.369270000000     0.182470000000     0.0401059  
H47      H      0.461960000000     0.473230000000     0.174530000000     0.0455477  
H48      H      0.615890000000     0.493680000000     0.149230000000     0.0329007  
H49      H      0.644010000000     0.390090000000     0.902070000000     0.0394453  
H50      H      0.658020000000     0.439180000000     0.968570000000     0.040417   
H51      H      0.154550000000     0.301590000000     0.410770000000     0.03285    
H52      H      0.172180000000     0.291150000000     0.483960000000     0.0432552  
H53      H      0.705410000000     0.457950000000     0.899740000000     0.0393007  
H54      H      0.727490000000     0.449990000000     0.972950000000     0.0399169  
H55      H      0.236450000000     0.357600000000     0.483790000000     0.0427219  
H56      H      0.282390000000     0.316640000000     0.439350000000     0.0348423  
H57      H      0.260740000000     0.441780000000     0.674240000000     0.0378202  
H58      H      0.672630000000     0.435260000000     0.657380000000     0.0395007  
H59      H      0.246290000000     0.337070000000     0.678600000000     0.029422   
H60      H      0.648490000000     0.268660000000     0.666030000000     0.0447534  
H61      H      0.238420000000     0.465540000000     0.718440000000     0.0411518  
H62      H      0.641280000000     0.398210000000     0.704950000000     0.0409557  
H63      H      0.626320000000     0.292280000000     0.710830000000     0.0469374  
H64      H      0.259680000000     0.270520000000     0.730800000000     0.0319956  
H65      H      0.410150000000     0.189770000000     0.702550000000     0.0386265  
H66      H      0.450390000000     0.172160000000     0.766200000000     0.0356594  
H67      H      0.417930000000     0.594290000000     0.622600000000     0.025425   
H68      H      0.354820000000     0.576060000000     0.681970000000     0.0408797  
H69      H      0.484410000000     0.236320000000     0.703580000000     0.039518   
H70      H      0.498950000000     0.162120000000     0.735410000000     0.0454058  
H71      H      0.382150000000     0.529260000000     0.685420000000     0.0436173  
H72      H      0.494290000000     0.565070000000     0.625220000000     0.0313183  
H73      H      0.492060000000     0.677920000000     0.402940000000     0.0393398  
H74      H      0.529450000000     0.667050000000     0.469610000000     0.0389577  
H75      H      0.390990000000     0.164030000000     0.910380000000     0.029815   
H76      H      0.369760000000     0.156240000000     0.984430000000     0.0428408  
H77      H      0.499660000000     0.616960000000     0.402350000000     0.0350492  
H78      H      0.470300000000     0.597860000000     0.476260000000     0.0372779  
H79      H      0.370300000000     0.091150000000     0.988830000000     0.0443859  
H80      H      0.288330000000     0.094260000000     0.882860000000     0.0318379  
H81      H      0.430830000000     0.325340000000     0.907170000000     0.0390124  
H82      H      0.384050000000     0.294020000000     0.974880000000     0.0397502  
H83      H      0.520820000000     0.424730000000     0.412590000000     0.0329086  
H84      H      0.534770000000     0.454490000000     0.485370000000     0.0444559  
H85      H      0.364150000000     0.320980000000     0.905800000000     0.0360623  
H86      H      0.376170000000     0.354970000000     0.978480000000     0.0375252  
H87      H      0.469750000000     0.454680000000     0.486830000000     0.0423811  
H88      H      0.502910000000     0.538180000000     0.437760000000     0.03683    
H89      H      0.449410000000     0.324890000000     0.712470000000     0.0385917  
H90      H      0.368850000000     0.332800000000     0.730200000000     0.0397955  
H91      H      0.540260000000     0.431420000000     0.705780000000     0.0307253  
H92      H      0.509690000000     0.499400000000     0.718140000000     0.045377   
H93      H      0.402500000000     0.300990000000     0.668850000000     0.0402248  
H94      H      0.373630000000     0.369270000000     0.682470000000     0.0401357  
H95      H      0.461960000000     0.473230000000     0.674530000000     0.0455693  
H96      H      0.615890000000     0.493680000000     0.649230000000     0.0329176  
H97      H      0.644010000000     0.890090000000     0.402070000000     0.0394292  
H98      H      0.658020000000     0.939190000000     0.468580000000     0.0402769  
H99      H      0.154550000000     0.801590000000     0.910770000000     0.0328783  
H100     H      0.172180000000     0.791150000000     0.983960000000     0.043407   
H101     H      0.705410000000     0.957950000000     0.399740000000     0.0393242  
H102     H      0.727500000000     0.949990000000     0.472950000000     0.0398326  
H103     H      0.236450000000     0.857600000000     0.983790000000     0.0428247  
H104     H      0.282390000000     0.816640000000     0.939350000000     0.0348765  
H105     H      0.260740000000     0.941770000000     0.174240000000     0.0378343  
H106     H      0.672630000000     0.935260000000     0.157380000000     0.0394586  
H107     H      0.246290000000     0.837070000000     0.178600000000     0.0293909  
H108     H      0.648500000000     0.768660000000     0.166030000000     0.0447235  
H109     H      0.238420000000     0.965540000000     0.218440000000     0.0411925  
H110     H      0.641280000000     0.898200000000     0.204950000000     0.0409404  
H111     H      0.626320000000     0.792290000000     0.210830000000     0.0469401  
H112     H      0.259680000000     0.770520000000     0.230800000000     0.0319915  
H113     H      0.410150000000     0.689770000000     0.202550000000     0.0386146  
H114     H      0.450390000000     0.672160000000     0.266200000000     0.0356735  
H115     H      0.417940000000     0.094290000000     0.122600000000     0.0253453  
H116     H      0.354820000000     0.076060000000     0.181970000000     0.0408404  
H117     H      0.484410000000     0.736320000000     0.203580000000     0.0395102  
H118     H      0.498950000000     0.662120000000     0.235410000000     0.0454224  
H119     H      0.382150000000     0.029270000000     0.185420000000     0.0435743  
H120     H      0.494290000000     0.065070000000     0.125220000000     0.0312341  
H121     H      0.492060000000     0.177920000000     0.902940000000     0.0393817  
H122     H      0.529450000000     0.167050000000     0.969610000000     0.0390915  
H123     H      0.390990000000     0.664030000000     0.410380000000     0.0297904  
H124     H      0.369770000000     0.656240000000     0.484430000000     0.0427005  
H125     H      0.499660000000     0.116960000000     0.902350000000     0.0350629  
H126     H      0.470300000000     0.097860000000     0.976260000000     0.037354   
H127     H      0.370300000000     0.591140000000     0.488820000000     0.044291   
H128     H      0.288340000000     0.594260000000     0.382860000000     0.0318535  
H129     H      0.430830000000     0.825340000000     0.407170000000     0.0389765  
H130     H      0.384050000000     0.794020000000     0.474890000000     0.0396052  
H131     H      0.520820000000     0.924720000000     0.912590000000     0.0329422  
H132     H      0.534770000000     0.954490000000     0.985370000000     0.044607   
H133     H      0.364150000000     0.820980000000     0.405800000000     0.0360467  
H134     H      0.376170000000     0.854970000000     0.478480000000     0.0374366  
H135     H      0.469750000000     0.954680000000     0.986830000000     0.0424851  
H136     H      0.502900000000     0.038180000000     0.937760000000     0.0368551  
H137     H      0.449410000000     0.824890000000     0.212470000000     0.0385934  
H138     H      0.368850000000     0.832800000000     0.230200000000     0.0397869  
H139     H      0.540260000000     0.931420000000     0.205780000000     0.0307354  
H140     H      0.509690000000     0.999390000000     0.218140000000     0.0453788  
H141     H      0.402500000000     0.800990000000     0.168850000000     0.0402046  
H142     H      0.373630000000     0.869270000000     0.182470000000     0.0401079  
H143     H      0.461960000000     0.973230000000     0.174530000000     0.0455488  
H144     H      0.615890000000     0.993680000000     0.149230000000     0.0329191  
H145     H      0.644010000000     0.890090000000     0.902070000000     0.0394544  
H146     H      0.658020000000     0.939190000000     0.968570000000     0.0404135  
H147     H      0.154550000000     0.801590000000     0.410770000000     0.032852   
H148     H      0.172180000000     0.791150000000     0.483960000000     0.0432525  
H149     H      0.705410000000     0.957950000000     0.899740000000     0.0393301  
H150     H      0.727500000000     0.949990000000     0.972950000000     0.0399232  
H151     H      0.236450000000     0.857600000000     0.483790000000     0.0427238  
H152     H      0.282390000000     0.816640000000     0.439350000000     0.0348447  
H153     H      0.260740000000     0.941770000000     0.674240000000     0.0378692  
H154     H      0.672630000000     0.935260000000     0.657380000000     0.0394838  
H155     H      0.246290000000     0.837070000000     0.678600000000     0.0294267  
H156     H      0.648500000000     0.768660000000     0.666030000000     0.0447479  
H157     H      0.238420000000     0.965540000000     0.718440000000     0.0412011  
H158     H      0.641280000000     0.898200000000     0.704950000000     0.0409375  
H159     H      0.626320000000     0.792290000000     0.710830000000     0.0469369  
H160     H      0.259680000000     0.770520000000     0.730800000000     0.0319984  
H161     H      0.410150000000     0.689770000000     0.702550000000     0.0386239  
H162     H      0.450390000000     0.672160000000     0.766200000000     0.0356749  
H163     H      0.417940000000     0.094290000000     0.622600000000     0.0254128  
H164     H      0.354820000000     0.076060000000     0.681970000000     0.0408633  
H165     H      0.484410000000     0.736320000000     0.703580000000     0.039509   
H166     H      0.498950000000     0.662120000000     0.735410000000     0.0454225  
H167     H      0.382150000000     0.029270000000     0.685420000000     0.0435921  
H168     H      0.494290000000     0.065070000000     0.625220000000     0.0312973  
H169     H      0.492060000000     0.177920000000     0.402940000000     0.039349   
H170     H      0.529450000000     0.167050000000     0.469610000000     0.0389526  
H171     H      0.390990000000     0.664030000000     0.910380000000     0.0298137  
H172     H      0.369770000000     0.656240000000     0.984430000000     0.0428482  
H173     H      0.499660000000     0.116960000000     0.402350000000     0.0350501  
H174     H      0.470300000000     0.097860000000     0.476260000000     0.0372624  
H175     H      0.370300000000     0.591140000000     0.988830000000     0.0443972  
H176     H      0.288340000000     0.594260000000     0.882860000000     0.0318546  
H177     H      0.430830000000     0.825340000000     0.907170000000     0.0390103  
H178     H      0.384050000000     0.794020000000     0.974880000000     0.0397449  
H179     H      0.520820000000     0.924720000000     0.412590000000     0.0329151  
H180     H      0.534770000000     0.954490000000     0.485370000000     0.0444513  
H181     H      0.364150000000     0.820980000000     0.905800000000     0.0360583  
H182     H      0.376170000000     0.854970000000     0.978480000000     0.0375269  
H183     H      0.469750000000     0.954680000000     0.486830000000     0.0423818  
H184     H      0.502900000000     0.038180000000     0.437760000000     0.0368251  
H185     H      0.449410000000     0.824890000000     0.712470000000     0.0385917  
H186     H      0.368850000000     0.832800000000     0.730200000000     0.0397924  
H187     H      0.540260000000     0.931420000000     0.705780000000     0.0307356  
H188     H      0.509690000000     0.999390000000     0.718140000000     0.0453796  
H189     H      0.402500000000     0.800990000000     0.668850000000     0.0402253  
H190     H      0.373630000000     0.869270000000     0.682470000000     0.0401377  
H191     H      0.461960000000     0.973230000000     0.674530000000     0.0455703  
H192     H      0.615890000000     0.993680000000     0.649230000000     0.032936   
H193     H      0.144010000000     0.390090000000     0.402070000000     0.0395973  
H194     H      0.158020000000     0.439180000000     0.468580000000     0.040334   
H195     H      0.654550000000     0.301590000000     0.910770000000     0.0326966  
H196     H      0.672180000000     0.291150000000     0.983960000000     0.0433558  
H197     H      0.205410000000     0.457950000000     0.399740000000     0.0393477  
H198     H      0.227490000000     0.449990000000     0.472950000000     0.0398268  
H199     H      0.736450000000     0.357600000000     0.983790000000     0.0428174  
H200     H      0.782390000000     0.316640000000     0.939350000000     0.0348842  
H201     H      0.760740000000     0.441780000000     0.174240000000     0.0377876  
H202     H      0.172630000000     0.435260000000     0.157380000000     0.0395046  
H203     H      0.746290000000     0.337070000000     0.178600000000     0.0293735  
H204     H      0.148500000000     0.268660000000     0.166030000000     0.044908   
H205     H      0.738420000000     0.465540000000     0.218440000000     0.0411174  
H206     H      0.141280000000     0.398210000000     0.204950000000     0.0411224  
H207     H      0.126320000000     0.292280000000     0.210830000000     0.0472318  
H208     H      0.759680000000     0.270520000000     0.230800000000     0.0319864  
H209     H      0.910150000000     0.189770000000     0.202550000000     0.0385942  
H210     H      0.950390000000     0.172160000000     0.266200000000     0.0354938  
H211     H      0.917930000000     0.594290000000     0.122600000000     0.0253002  
H212     H      0.854820000000     0.576060000000     0.181970000000     0.0408623  
H213     H      0.984410000000     0.236320000000     0.203580000000     0.0392179  
H214     H      0.998950000000     0.162120000000     0.235410000000     0.0450815  
H215     H      0.882150000000     0.529260000000     0.185420000000     0.0435881  
H216     H      0.994290000000     0.565070000000     0.125220000000     0.0310207  
H217     H      0.992060000000     0.677920000000     0.902940000000     0.0388772  
H218     H      0.029450000000     0.667050000000     0.969610000000     0.0404504  
H219     H      0.890990000000     0.164030000000     0.410380000000     0.0297028  
H220     H      0.869760000000     0.156240000000     0.484430000000     0.042717   
H221     H      0.999660000000     0.616960000000     0.902350000000     0.0344378  
H222     H      0.970300000000     0.597860000000     0.976260000000     0.0374734  
H223     H      0.870300000000     0.091150000000     0.488820000000     0.0442968  
H224     H      0.788340000000     0.094260000000     0.382860000000     0.0318066  
H225     H      0.930830000000     0.325340000000     0.407170000000     0.0387655  
H226     H      0.884050000000     0.294020000000     0.474890000000     0.0396182  
H227     H      0.020820000000     0.424730000000     0.912590000000     0.0343587  
H228     H      0.034770000000     0.454490000000     0.985370000000     0.0456306  
H229     H      0.864150000000     0.320980000000     0.405800000000     0.0360263  
H230     H      0.876170000000     0.354970000000     0.478480000000     0.0374518  
H231     H      0.969750000000     0.454680000000     0.986830000000     0.0423933  
H232     H      0.002910000000     0.538180000000     0.937760000000     0.0372556  
H233     H      0.949410000000     0.324890000000     0.212470000000     0.0383405  
H234     H      0.868850000000     0.332800000000     0.230200000000     0.0397959  
H235     H      0.040260000000     0.431420000000     0.205780000000     0.0305886  
H236     H      0.009690000000     0.499400000000     0.218140000000     0.0471194  
H237     H      0.902500000000     0.300990000000     0.168850000000     0.0402049  
H238     H      0.873630000000     0.369270000000     0.182470000000     0.0401402  
H239     H      0.961960000000     0.473230000000     0.174530000000     0.0459805  
H240     H      0.115890000000     0.493680000000     0.149230000000     0.0329047  
H241     H      0.144010000000     0.390090000000     0.902070000000     0.0396219  
H242     H      0.158020000000     0.439180000000     0.968570000000     0.0404698  
H243     H      0.654550000000     0.301590000000     0.410770000000     0.0326697  
H244     H      0.672180000000     0.291150000000     0.483960000000     0.0432003  
H245     H      0.205410000000     0.457950000000     0.899740000000     0.0393535  
H246     H      0.227490000000     0.449990000000     0.972950000000     0.0399171  
H247     H      0.736450000000     0.357600000000     0.483790000000     0.0427159  
H248     H      0.782390000000     0.316640000000     0.439350000000     0.0348523  
H249     H      0.760740000000     0.441780000000     0.674240000000     0.0378227  
H250     H      0.172630000000     0.435260000000     0.657380000000     0.0395297  
H251     H      0.746290000000     0.337070000000     0.678600000000     0.0294095  
H252     H      0.148500000000     0.268660000000     0.666030000000     0.044932   
H253     H      0.738420000000     0.465540000000     0.718440000000     0.041126   
H254     H      0.141280000000     0.398210000000     0.704950000000     0.0411193  
H255     H      0.126320000000     0.292280000000     0.710830000000     0.0472282  
H256     H      0.759680000000     0.270520000000     0.730800000000     0.0319933  
H257     H      0.910150000000     0.189770000000     0.702550000000     0.0386036  
H258     H      0.950390000000     0.172160000000     0.766200000000     0.0354955  
H259     H      0.917930000000     0.594290000000     0.622600000000     0.0253679  
H260     H      0.854820000000     0.576060000000     0.681970000000     0.0408853  
H261     H      0.984410000000     0.236320000000     0.703580000000     0.0392169  
H262     H      0.998950000000     0.162120000000     0.735410000000     0.045082   
H263     H      0.882150000000     0.529260000000     0.685420000000     0.043606   
H264     H      0.994290000000     0.565070000000     0.625220000000     0.0310842  
H265     H      0.992060000000     0.677920000000     0.402940000000     0.0388434  
H266     H      0.029450000000     0.667050000000     0.469610000000     0.0403156  
H267     H      0.890990000000     0.164030000000     0.910380000000     0.0297263  
H268     H      0.869760000000     0.156240000000     0.984430000000     0.0428655  
H269     H      0.999660000000     0.616960000000     0.402350000000     0.0344235  
H270     H      0.970300000000     0.597860000000     0.476260000000     0.0373818  
H271     H      0.870300000000     0.091150000000     0.988830000000     0.0444036  
H272     H      0.788340000000     0.094260000000     0.882860000000     0.0318078  
H273     H      0.930830000000     0.325340000000     0.907170000000     0.0387998  
H274     H      0.884050000000     0.294020000000     0.974880000000     0.0397586  
H275     H      0.020820000000     0.424730000000     0.412590000000     0.0343352  
H276     H      0.034770000000     0.454490000000     0.485370000000     0.0454788  
H277     H      0.864150000000     0.320980000000     0.905800000000     0.036038   
H278     H      0.876170000000     0.354970000000     0.978480000000     0.0375425  
H279     H      0.969750000000     0.454680000000     0.486830000000     0.0422899  
H280     H      0.002910000000     0.538180000000     0.437760000000     0.0372267  
H281     H      0.949410000000     0.324890000000     0.712470000000     0.0383391  
H282     H      0.868850000000     0.332800000000     0.730200000000     0.0398013  
H283     H      0.040260000000     0.431420000000     0.705780000000     0.0305889  
H284     H      0.009690000000     0.499400000000     0.718140000000     0.0471178  
H285     H      0.902500000000     0.300990000000     0.668850000000     0.0402257  
H286     H      0.873630000000     0.369270000000     0.682470000000     0.0401701  
H287     H      0.961960000000     0.473230000000     0.674530000000     0.0460014  
H288     H      0.115890000000     0.493680000000     0.649230000000     0.0329215  
H289     H      0.144010000000     0.890090000000     0.402070000000     0.0396077  
H290     H      0.158020000000     0.939190000000     0.468580000000     0.0403266  
H291     H      0.654550000000     0.801590000000     0.910770000000     0.0326979  
H292     H      0.672180000000     0.791150000000     0.983960000000     0.0433548  
H293     H      0.205410000000     0.957950000000     0.399740000000     0.0393765  
H294     H      0.227500000000     0.949990000000     0.472950000000     0.0398299  
H295     H      0.736450000000     0.857600000000     0.983790000000     0.0428198  
H296     H      0.782390000000     0.816640000000     0.939350000000     0.0348845  
H297     H      0.760740000000     0.941770000000     0.174240000000     0.0378344  
H298     H      0.172630000000     0.935260000000     0.157380000000     0.039485   
H299     H      0.746290000000     0.837070000000     0.178600000000     0.0293804  
H300     H      0.148500000000     0.768660000000     0.166030000000     0.0449115  
H301     H      0.738420000000     0.965540000000     0.218440000000     0.0411665  
H302     H      0.141280000000     0.898200000000     0.204950000000     0.0411014  
H303     H      0.126320000000     0.792290000000     0.210830000000     0.0472326  
H304     H      0.759680000000     0.770520000000     0.230800000000     0.0319898  
H305     H      0.910150000000     0.689770000000     0.202550000000     0.0385912  
H306     H      0.950390000000     0.672160000000     0.266200000000     0.0355138  
H307     H      0.917930000000     0.094290000000     0.122600000000     0.025288   
H308     H      0.854820000000     0.076060000000     0.181970000000     0.0408447  
H309     H      0.984410000000     0.736320000000     0.203580000000     0.0392083  
H310     H      0.998950000000     0.662120000000     0.235410000000     0.0450975  
H311     H      0.882150000000     0.029270000000     0.185420000000     0.0435661  
H312     H      0.994290000000     0.065070000000     0.125220000000     0.0310003  
H313     H      0.992060000000     0.177920000000     0.902940000000     0.0388825  
H314     H      0.029450000000     0.167050000000     0.969610000000     0.0404426  
H315     H      0.890990000000     0.664030000000     0.410380000000     0.0297058  
H316     H      0.869770000000     0.656240000000     0.484430000000     0.0427289  
H317     H      0.999660000000     0.116960000000     0.902350000000     0.0344308  
H318     H      0.970300000000     0.097860000000     0.976260000000     0.0374555  
H319     H      0.870300000000     0.591140000000     0.488820000000     0.0443092  
H320     H      0.788330000000     0.594260000000     0.382860000000     0.0318088  
H321     H      0.930820000000     0.825340000000     0.407170000000     0.0387717  
H322     H      0.884050000000     0.794020000000     0.474890000000     0.0396106  
H323     H      0.020820000000     0.924720000000     0.912590000000     0.034357   
H324     H      0.034770000000     0.954490000000     0.985370000000     0.045629   
H325     H      0.864150000000     0.820980000000     0.405800000000     0.036032   
H326     H      0.876170000000     0.854970000000     0.478480000000     0.037449   
H327     H      0.969750000000     0.954680000000     0.986830000000     0.0423944  
H328     H      0.002900000000     0.038180000000     0.937760000000     0.0372482  
H329     H      0.949410000000     0.824890000000     0.212470000000     0.0383406  
H330     H      0.868850000000     0.832800000000     0.230200000000     0.0397956  
H331     H      0.040260000000     0.931420000000     0.205780000000     0.0305985  
H332     H      0.009690000000     0.999390000000     0.218140000000     0.0471212  
H333     H      0.902500000000     0.800990000000     0.168850000000     0.0402004  
H334     H      0.873630000000     0.869270000000     0.182470000000     0.0401437  
H335     H      0.961960000000     0.973230000000     0.174530000000     0.0459817  
H336     H      0.115900000000     0.993680000000     0.149230000000     0.032913   
H337     H      0.144010000000     0.890090000000     0.902070000000     0.0396324  
H338     H      0.158020000000     0.939190000000     0.968570000000     0.0404623  
H339     H      0.654550000000     0.801590000000     0.410770000000     0.032671   
H340     H      0.672180000000     0.791150000000     0.483960000000     0.0431993  
H341     H      0.205410000000     0.957950000000     0.899740000000     0.0393823  
H342     H      0.227500000000     0.949990000000     0.972950000000     0.0399201  
H343     H      0.736450000000     0.857600000000     0.483790000000     0.0427182  
H344     H      0.782390000000     0.816640000000     0.439350000000     0.0348525  
H345     H      0.760740000000     0.941770000000     0.674240000000     0.0378694  
H346     H      0.172630000000     0.935260000000     0.657380000000     0.0395101  
H347     H      0.746290000000     0.837070000000     0.678600000000     0.0294163  
H348     H      0.148500000000     0.768660000000     0.666030000000     0.0449355  
H349     H      0.738420000000     0.965540000000     0.718440000000     0.0411751  
H350     H      0.141280000000     0.898200000000     0.704950000000     0.0410983  
H351     H      0.126320000000     0.792290000000     0.710830000000     0.047229   
H352     H      0.759680000000     0.770520000000     0.730800000000     0.0319967  
H353     H      0.910150000000     0.689770000000     0.702550000000     0.0386006  
H354     H      0.950390000000     0.672160000000     0.766200000000     0.0355155  
H355     H      0.917930000000     0.094290000000     0.622600000000     0.0253557  
H356     H      0.854820000000     0.076060000000     0.681970000000     0.0408677  
H357     H      0.984410000000     0.736320000000     0.703580000000     0.0392073  
H358     H      0.998950000000     0.662120000000     0.735410000000     0.045098   
H359     H      0.882150000000     0.029270000000     0.685420000000     0.043584   
H360     H      0.994290000000     0.065070000000     0.625220000000     0.0310638  
H361     H      0.992060000000     0.177920000000     0.402940000000     0.0388488  
H362     H      0.029450000000     0.167050000000     0.469610000000     0.0403078  
H363     H      0.890990000000     0.664030000000     0.910380000000     0.0297293  
H364     H      0.869770000000     0.656240000000     0.984430000000     0.0428774  
H365     H      0.999660000000     0.116960000000     0.402350000000     0.0344165  
H366     H      0.970300000000     0.097860000000     0.476260000000     0.0373639  
H367     H      0.870300000000     0.591140000000     0.988830000000     0.044416   
H368     H      0.788330000000     0.594260000000     0.882860000000     0.03181    
H369     H      0.930820000000     0.825340000000     0.907170000000     0.038806   
H370     H      0.884050000000     0.794020000000     0.974880000000     0.0397511  
H371     H      0.020820000000     0.924720000000     0.412590000000     0.0343335  
H372     H      0.034770000000     0.954490000000     0.485370000000     0.0454772  
H373     H      0.864150000000     0.820980000000     0.905800000000     0.0360438  
H374     H      0.876170000000     0.854970000000     0.978480000000     0.0375397  
H375     H      0.969750000000     0.954680000000     0.486830000000     0.0422909  
H376     H      0.002900000000     0.038180000000     0.437760000000     0.0372193  
H377     H      0.949410000000     0.824890000000     0.712470000000     0.0383393  
H378     H      0.868850000000     0.832800000000     0.730200000000     0.039801   
H379     H      0.040260000000     0.931420000000     0.705780000000     0.0305988  
H380     H      0.009690000000     0.999390000000     0.718140000000     0.0471196  
H381     H      0.902500000000     0.800990000000     0.668850000000     0.0402212  
H382     H      0.873630000000     0.869270000000     0.682470000000     0.0401735  
H383     H      0.961960000000     0.973230000000     0.674530000000     0.0460027  
H384     H      0.115900000000     0.993680000000     0.649230000000     0.0329298  
N1       N      0.218680000000     0.386500000000     0.403100000000    -0.189852   
N2       N      0.664450000000     0.365240000000     0.981250000000    -0.185995   
N3       N      0.233640000000     0.384850000000     0.224930000000    -0.192888   
N4       N      0.653650000000     0.349010000000     0.160200000000    -0.185227   
N5       N      0.455090000000     0.169370000000     0.158980000000    -0.193452   
N6       N      0.414740000000     0.596810000000     0.229890000000    -0.18648    
N7       N      0.414910000000     0.601840000000     0.406470000000    -0.189214   
N8       N      0.450210000000     0.162340000000     0.982190000000    -0.184152   
N9       N      0.436450000000     0.405010000000     0.406880000000    -0.190396   
N10      N      0.459770000000     0.373560000000     0.984960000000    -0.185466   
N11      N      0.478290000000     0.380960000000     0.161280000000    -0.192968   
N12      N      0.436240000000     0.418720000000     0.226320000000    -0.185193   
N13      N      0.218680000000     0.386500000000     0.903100000000    -0.189843   
N14      N      0.664450000000     0.365240000000     0.481250000000    -0.186306   
N15      N      0.233640000000     0.384850000000     0.724930000000    -0.192873   
N16      N      0.653650000000     0.349010000000     0.660200000000    -0.185219   
N17      N      0.455090000000     0.169370000000     0.658980000000    -0.193445   
N18      N      0.414740000000     0.596810000000     0.729890000000    -0.186478   
N19      N      0.414910000000     0.601840000000     0.906470000000    -0.189208   
N20      N      0.450210000000     0.162340000000     0.482190000000    -0.184458   
N21      N      0.436450000000     0.405010000000     0.906880000000    -0.190393   
N22      N      0.459770000000     0.373560000000     0.484960000000    -0.185776   
N23      N      0.478290000000     0.380960000000     0.661280000000    -0.19296    
N24      N      0.436240000000     0.418720000000     0.726320000000    -0.18519    
N25      N      0.218680000000     0.886500000000     0.403100000000    -0.189813   
N26      N      0.664450000000     0.865240000000     0.981250000000    -0.186033   
N27      N      0.233640000000     0.884850000000     0.224930000000    -0.192902   
N28      N      0.653650000000     0.849010000000     0.160200000000    -0.185245   
N29      N      0.455090000000     0.669370000000     0.158980000000    -0.193478   
N30      N      0.414740000000     0.096810000000     0.229890000000    -0.186491   
N31      N      0.414910000000     0.101850000000     0.406470000000    -0.189176   
N32      N      0.450210000000     0.662340000000     0.982190000000    -0.184152   
N33      N      0.436450000000     0.905010000000     0.406880000000    -0.190413   
N34      N      0.459770000000     0.873560000000     0.984960000000    -0.185504   
N35      N      0.478290000000     0.880960000000     0.161280000000    -0.192964   
N36      N      0.436240000000     0.918720000000     0.226320000000    -0.185233   
N37      N      0.218680000000     0.886500000000     0.903100000000    -0.189804   
N38      N      0.664450000000     0.865240000000     0.481250000000    -0.186344   
N39      N      0.233640000000     0.884850000000     0.724930000000    -0.192887   
N40      N      0.653650000000     0.849010000000     0.660200000000    -0.185238   
N41      N      0.455090000000     0.669370000000     0.658980000000    -0.193472   
N42      N      0.414740000000     0.096810000000     0.729890000000    -0.18649    
N43      N      0.414910000000     0.101850000000     0.906470000000    -0.189171   
N44      N      0.450210000000     0.662340000000     0.482190000000    -0.184458   
N45      N      0.436450000000     0.905010000000     0.906880000000    -0.19041    
N46      N      0.459770000000     0.873560000000     0.484960000000    -0.185814   
N47      N      0.478290000000     0.880960000000     0.661280000000    -0.192955   
N48      N      0.436240000000     0.918720000000     0.726320000000    -0.18523    
N49      N      0.718680000000     0.386500000000     0.403100000000    -0.189884   
N50      N      0.164450000000     0.365240000000     0.981250000000    -0.185977   
N51      N      0.733640000000     0.384850000000     0.224930000000    -0.19293    
N52      N      0.153650000000     0.349010000000     0.160200000000    -0.185162   
N53      N      0.955090000000     0.169370000000     0.158980000000    -0.193534   
N54      N      0.914730000000     0.596810000000     0.229890000000    -0.186508   
N55      N      0.914910000000     0.601840000000     0.406470000000    -0.189329   
N56      N      0.950210000000     0.162340000000     0.982190000000    -0.18373    
N57      N      0.936450000000     0.405010000000     0.406880000000    -0.19025    
N58      N      0.959770000000     0.373560000000     0.984960000000    -0.185173   
N59      N      0.978290000000     0.380960000000     0.161280000000    -0.193468   
N60      N      0.936240000000     0.418720000000     0.226320000000    -0.184906   
N61      N      0.718680000000     0.386500000000     0.903100000000    -0.189874   
N62      N      0.164450000000     0.365240000000     0.481250000000    -0.186286   
N63      N      0.733640000000     0.384850000000     0.724930000000    -0.192916   
N64      N      0.153650000000     0.349010000000     0.660200000000    -0.185154   
N65      N      0.955090000000     0.169370000000     0.658980000000    -0.193527   
N66      N      0.914730000000     0.596810000000     0.729890000000    -0.186506   
N67      N      0.914910000000     0.601840000000     0.906470000000    -0.189324   
N68      N      0.950210000000     0.162340000000     0.482190000000    -0.184038   
N69      N      0.936450000000     0.405010000000     0.906880000000    -0.190247   
N70      N      0.959770000000     0.373560000000     0.484960000000    -0.185484   
N71      N      0.978290000000     0.380960000000     0.661280000000    -0.193459   
N72      N      0.936240000000     0.418720000000     0.726320000000    -0.184903   
N73      N      0.718680000000     0.886500000000     0.403100000000    -0.189852   
N74      N      0.164450000000     0.865240000000     0.981250000000    -0.186042   
N75      N      0.733640000000     0.884850000000     0.224930000000    -0.192917   
N76      N      0.153650000000     0.849010000000     0.160200000000    -0.185179   
N77      N      0.955090000000     0.669370000000     0.158980000000    -0.19356    
N78      N      0.914740000000     0.096810000000     0.229890000000    -0.186518   
N79      N      0.914910000000     0.101850000000     0.406470000000    -0.189327   
N80      N      0.950210000000     0.662340000000     0.982190000000    -0.183699   
N81      N      0.936450000000     0.905010000000     0.406880000000    -0.190278   
N82      N      0.959770000000     0.873560000000     0.984960000000    -0.185209   
N83      N      0.978290000000     0.880960000000     0.161280000000    -0.193489   
N84      N      0.936240000000     0.918720000000     0.226320000000    -0.184939   
N85      N      0.718680000000     0.886500000000     0.903100000000    -0.189843   
N86      N      0.164450000000     0.865240000000     0.481250000000    -0.186351   
N87      N      0.733640000000     0.884850000000     0.724930000000    -0.192902   
N88      N      0.153650000000     0.849010000000     0.660200000000    -0.185171   
N89      N      0.955090000000     0.669370000000     0.658980000000    -0.193553   
N90      N      0.914740000000     0.096810000000     0.729890000000    -0.186517   
N91      N      0.914910000000     0.101850000000     0.906470000000    -0.189321   
N92      N      0.950210000000     0.662340000000     0.482190000000    -0.184006   
N93      N      0.936450000000     0.905010000000     0.906880000000    -0.190275   
N94      N      0.959770000000     0.873560000000     0.484960000000    -0.185521   
N95      N      0.978290000000     0.880960000000     0.661280000000    -0.19348    
N96      N      0.936240000000     0.918720000000     0.726320000000    -0.184936   
O1       O      0.429890000000     0.567250000000     0.292510000000    -0.496621   
O2       O      0.362080000000     0.396630000000     0.369940000000    -0.504124   
O3       O      0.346730000000     0.523630000000     0.266110000000    -0.504293   
O4       O      0.361860000000     0.554930000000     0.349100000000    -0.488159   
O5       O      0.437590000000     0.484710000000     0.270390000000    -0.502992   
O6       O      0.268810000000     0.378240000000     0.349080000000    -0.495797   
O7       O      0.358860000000     0.464660000000     0.319320000000    -0.870696   
O8       O      0.300290000000     0.387070000000     0.268210000000    -0.510083   
O9       O      0.262190000000     0.436910000000     0.284590000000    -0.506651   
O10      O      0.423340000000     0.534100000000     0.371990000000    -0.502577   
O11      O      0.284210000000     0.461420000000     0.365990000000    -0.503492   
O12      O      0.389140000000     0.396550000000     0.288430000000    -0.498304   
O13      O      0.444860000000     0.460470000000     0.350550000000    -0.494707   
O14      O      0.455970000000     0.325860000000     0.103110000000    -0.505171   
O15      O      0.524860000000     0.232350000000     0.016060000000    -0.504653   
O16      O      0.543320000000     0.377620000000     0.119570000000    -0.511716   
O17      O      0.519530000000     0.384790000000     0.038480000000    -0.497397   
O18      O      0.457880000000     0.241110000000     0.122160000000    -0.506993   
O19      O      0.618520000000     0.307850000000     0.036740000000    -0.498362   
O20      O      0.527320000000     0.300690000000     0.068680000000    -0.869702   
O21      O      0.588290000000     0.283080000000     0.117040000000    -0.506543   
O22      O      0.624580000000     0.371290000000     0.099740000000    -0.496304   
O23      O      0.454150000000     0.300170000000     0.021980000000    -0.506929   
O24      O      0.596610000000     0.370250000000     0.018070000000    -0.507881   
O25      O      0.499630000000     0.199190000000     0.096090000000    -0.493208   
O26      O      0.442080000000     0.208260000000     0.039530000000    -0.488682   
O27      O      0.429890000000     0.567250000000     0.792510000000    -0.496616   
O28      O      0.362080000000     0.396630000000     0.869940000000    -0.504095   
O29      O      0.346730000000     0.523630000000     0.766110000000    -0.504267   
O30      O      0.361860000000     0.554930000000     0.849100000000    -0.488145   
O31      O      0.437590000000     0.484710000000     0.770390000000    -0.502988   
O32      O      0.268810000000     0.378240000000     0.849080000000    -0.49579    
O33      O      0.358860000000     0.464660000000     0.819320000000    -0.870657   
O34      O      0.300290000000     0.387070000000     0.768200000000    -0.509975   
O35      O      0.262190000000     0.436910000000     0.784590000000    -0.506644   
O36      O      0.423340000000     0.534100000000     0.871990000000    -0.502569   
O37      O      0.284210000000     0.461420000000     0.866000000000    -0.50338    
O38      O      0.389140000000     0.396550000000     0.788430000000    -0.498288   
O39      O      0.444860000000     0.460470000000     0.850550000000    -0.494703   
O40      O      0.455970000000     0.325860000000     0.603110000000    -0.505147   
O41      O      0.524860000000     0.232350000000     0.516060000000    -0.504601   
O42      O      0.543320000000     0.377620000000     0.619570000000    -0.511727   
O43      O      0.519530000000     0.384790000000     0.538480000000    -0.497378   
O44      O      0.457880000000     0.241110000000     0.622160000000    -0.506997   
O45      O      0.618520000000     0.307850000000     0.536740000000    -0.498341   
O46      O      0.527320000000     0.300690000000     0.568680000000    -0.869777   
O47      O      0.588290000000     0.283080000000     0.617040000000    -0.506545   
O48      O      0.624580000000     0.371290000000     0.599740000000    -0.496281   
O49      O      0.454150000000     0.300170000000     0.521980000000    -0.506882   
O50      O      0.596610000000     0.370250000000     0.518070000000    -0.507832   
O51      O      0.499630000000     0.199190000000     0.596090000000    -0.493182   
O52      O      0.442080000000     0.208260000000     0.539530000000    -0.488666   
O53      O      0.429890000000     0.067250000000     0.292510000000    -0.496621   
O54      O      0.362080000000     0.896630000000     0.369940000000    -0.50412    
O55      O      0.346730000000     0.023630000000     0.266110000000    -0.504337   
O56      O      0.361860000000     0.054930000000     0.349100000000    -0.488172   
O57      O      0.437590000000     0.984700000000     0.270390000000    -0.503009   
O58      O      0.268810000000     0.878240000000     0.349080000000    -0.495781   
O59      O      0.358860000000     0.964650000000     0.319320000000    -0.870648   
O60      O      0.300290000000     0.887070000000     0.268210000000    -0.510202   
O61      O      0.262200000000     0.936910000000     0.284590000000    -0.506675   
O62      O      0.423340000000     0.034100000000     0.371990000000    -0.50256    
O63      O      0.284210000000     0.961430000000     0.365990000000    -0.503367   
O64      O      0.389140000000     0.896550000000     0.288430000000    -0.498368   
O65      O      0.444860000000     0.960470000000     0.350550000000    -0.494565   
O66      O      0.455970000000     0.825860000000     0.103110000000    -0.505169   
O67      O      0.524860000000     0.732350000000     0.016060000000    -0.504801   
O68      O      0.543320000000     0.877620000000     0.119570000000    -0.511714   
O69      O      0.519530000000     0.884790000000     0.038480000000    -0.497402   
O70      O      0.457880000000     0.741110000000     0.122160000000    -0.506805   
O71      O      0.618520000000     0.807850000000     0.036740000000    -0.498418   
O72      O      0.527320000000     0.800690000000     0.068680000000    -0.869702   
O73      O      0.588290000000     0.783080000000     0.117040000000    -0.506554   
O74      O      0.624580000000     0.871290000000     0.099740000000    -0.496298   
O75      O      0.454150000000     0.800170000000     0.021980000000    -0.506829   
O76      O      0.596620000000     0.870250000000     0.018070000000    -0.507968   
O77      O      0.499630000000     0.699190000000     0.096090000000    -0.493285   
O78      O      0.442090000000     0.708260000000     0.039530000000    -0.488747   
O79      O      0.429890000000     0.067250000000     0.792510000000    -0.496616   
O80      O      0.362080000000     0.896630000000     0.869940000000    -0.504091   
O81      O      0.346730000000     0.023630000000     0.766110000000    -0.504311   
O82      O      0.361860000000     0.054930000000     0.849100000000    -0.488158   
O83      O      0.437590000000     0.984700000000     0.770390000000    -0.503005   
O84      O      0.268810000000     0.878240000000     0.849080000000    -0.495773   
O85      O      0.358860000000     0.964650000000     0.819320000000    -0.870609   
O86      O      0.300290000000     0.887070000000     0.768200000000    -0.510094   
O87      O      0.262200000000     0.936910000000     0.784590000000    -0.506669   
O88      O      0.423340000000     0.034100000000     0.871990000000    -0.502552   
O89      O      0.284210000000     0.961430000000     0.866000000000    -0.503256   
O90      O      0.389140000000     0.896550000000     0.788430000000    -0.498352   
O91      O      0.444860000000     0.960470000000     0.850550000000    -0.494561   
O92      O      0.455970000000     0.825860000000     0.603110000000    -0.505145   
O93      O      0.524860000000     0.732350000000     0.516060000000    -0.504748   
O94      O      0.543320000000     0.877620000000     0.619570000000    -0.511724   
O95      O      0.519530000000     0.884790000000     0.538480000000    -0.497383   
O96      O      0.457880000000     0.741110000000     0.622160000000    -0.50681    
O97      O      0.618520000000     0.807850000000     0.536740000000    -0.498396   
O98      O      0.527320000000     0.800690000000     0.568680000000    -0.869777   
O99      O      0.588290000000     0.783080000000     0.617040000000    -0.506556   
O100     O      0.624580000000     0.871290000000     0.599740000000    -0.496274   
O101     O      0.454150000000     0.800170000000     0.521980000000    -0.506783   
O102     O      0.596620000000     0.870250000000     0.518070000000    -0.507919   
O103     O      0.499630000000     0.699190000000     0.596090000000    -0.493259   
O104     O      0.442090000000     0.708260000000     0.539530000000    -0.48873    
O105     O      0.929890000000     0.567250000000     0.292510000000    -0.496753   
O106     O      0.862080000000     0.396630000000     0.369940000000    -0.504095   
O107     O      0.846730000000     0.523630000000     0.266110000000    -0.504288   
O108     O      0.861860000000     0.554930000000     0.349100000000    -0.488192   
O109     O      0.937590000000     0.484710000000     0.270390000000    -0.503156   
O110     O      0.768810000000     0.378240000000     0.349080000000    -0.495824   
O111     O      0.858860000000     0.464660000000     0.319320000000    -0.870617   
O112     O      0.800290000000     0.387070000000     0.268210000000    -0.510098   
O113     O      0.762200000000     0.436910000000     0.284590000000    -0.506812   
O114     O      0.923340000000     0.534100000000     0.371990000000    -0.502761   
O115     O      0.784210000000     0.461420000000     0.365990000000    -0.503508   
O116     O      0.889140000000     0.396550000000     0.288430000000    -0.498314   
O117     O      0.944860000000     0.460470000000     0.350550000000    -0.49503    
O118     O      0.955970000000     0.325860000000     0.103110000000    -0.504737   
O119     O      0.024860000000     0.232350000000     0.016060000000    -0.503189   
O120     O      0.043320000000     0.377620000000     0.119570000000    -0.510439   
O121     O      0.019530000000     0.384790000000     0.038480000000    -0.495748   
O122     O      0.957880000000     0.241110000000     0.122160000000    -0.507058   
O123     O      0.118520000000     0.307850000000     0.036740000000    -0.498466   
O124     O      0.027320000000     0.300690000000     0.068680000000    -0.868716   
O125     O      0.088290000000     0.283080000000     0.117040000000    -0.506216   
O126     O      0.124580000000     0.371290000000     0.099740000000    -0.496278   
O127     O      0.954150000000     0.300170000000     0.021980000000    -0.506513   
O128     O      0.096610000000     0.370250000000     0.018070000000    -0.507706   
O129     O      0.999630000000     0.199190000000     0.096090000000    -0.494019   
O130     O      0.942080000000     0.208260000000     0.039530000000    -0.488195   
O131     O      0.929890000000     0.567250000000     0.792510000000    -0.496748   
O132     O      0.862080000000     0.396630000000     0.869940000000    -0.504065   
O133     O      0.846730000000     0.523630000000     0.766110000000    -0.504262   
O134     O      0.861860000000     0.554930000000     0.849100000000    -0.488178   
O135     O      0.937590000000     0.484710000000     0.770390000000    -0.503152   
O136     O      0.768810000000     0.378240000000     0.849080000000    -0.495817   
O137     O      0.858860000000     0.464660000000     0.819320000000    -0.870578   
O138     O      0.800290000000     0.387070000000     0.768200000000    -0.50999    
O139     O      0.762200000000     0.436910000000     0.784590000000    -0.506806   
O140     O      0.923340000000     0.534100000000     0.871990000000    -0.502752   
O141     O      0.784210000000     0.461420000000     0.866000000000    -0.503396   
O142     O      0.889140000000     0.396550000000     0.788430000000    -0.498297   
O143     O      0.944860000000     0.460470000000     0.850550000000    -0.495026   
O144     O      0.955970000000     0.325860000000     0.603110000000    -0.504713   
O145     O      0.024860000000     0.232350000000     0.516060000000    -0.503138   
O146     O      0.043320000000     0.377620000000     0.619570000000    -0.510451   
O147     O      0.019530000000     0.384790000000     0.538480000000    -0.495731   
O148     O      0.957880000000     0.241110000000     0.622160000000    -0.507063   
O149     O      0.118520000000     0.307850000000     0.536740000000    -0.498445   
O150     O      0.027320000000     0.300690000000     0.568680000000    -0.868792   
O151     O      0.088290000000     0.283080000000     0.617040000000    -0.506219   
O152     O      0.124580000000     0.371290000000     0.599740000000    -0.496254   
O153     O      0.954150000000     0.300170000000     0.521980000000    -0.506466   
O154     O      0.096610000000     0.370250000000     0.518070000000    -0.507658   
O155     O      0.999630000000     0.199190000000     0.596090000000    -0.493992   
O156     O      0.942080000000     0.208260000000     0.539530000000    -0.488179   
O157     O      0.929890000000     0.067250000000     0.292510000000    -0.496753   
O158     O      0.862090000000     0.896630000000     0.369940000000    -0.504243   
O159     O      0.846730000000     0.023630000000     0.266110000000    -0.504332   
O160     O      0.861860000000     0.054930000000     0.349100000000    -0.488239   
O161     O      0.937590000000     0.984700000000     0.270390000000    -0.503155   
O162     O      0.768810000000     0.878240000000     0.349080000000    -0.495933   
O163     O      0.858860000000     0.964650000000     0.319320000000    -0.870599   
O164     O      0.800290000000     0.887070000000     0.268210000000    -0.510237   
O165     O      0.762200000000     0.936910000000     0.284590000000    -0.506726   
O166     O      0.923330000000     0.034100000000     0.371990000000    -0.502849   
O167     O      0.784210000000     0.961430000000     0.365990000000    -0.503392   
O168     O      0.889130000000     0.896550000000     0.288430000000    -0.498328   
O169     O      0.944860000000     0.960470000000     0.350550000000    -0.494937   
O170     O      0.955970000000     0.825860000000     0.103110000000    -0.504794   
O171     O      0.024860000000     0.732350000000     0.016060000000    -0.503286   
O172     O      0.043320000000     0.877620000000     0.119570000000    -0.510319   
O173     O      0.019530000000     0.884790000000     0.038480000000    -0.495746   
O174     O      0.957880000000     0.741110000000     0.122160000000    -0.506825   
O175     O      0.118520000000     0.807850000000     0.036740000000    -0.498524   
O176     O      0.027320000000     0.800690000000     0.068680000000    -0.868549   
O177     O      0.088290000000     0.783080000000     0.117040000000    -0.506223   
O178     O      0.124580000000     0.871290000000     0.099740000000    -0.496267   
O179     O      0.954150000000     0.800170000000     0.021980000000    -0.506422   
O180     O      0.096620000000     0.870250000000     0.018070000000    -0.507677   
O181     O      0.999630000000     0.699190000000     0.096090000000    -0.494087   
O182     O      0.942080000000     0.708260000000     0.039530000000    -0.488137   
O183     O      0.929890000000     0.067250000000     0.792510000000    -0.496748   
O184     O      0.862090000000     0.896630000000     0.869940000000    -0.504214   
O185     O      0.846730000000     0.023630000000     0.766110000000    -0.504306   
O186     O      0.861860000000     0.054930000000     0.849100000000    -0.488225   
O187     O      0.937590000000     0.984700000000     0.770390000000    -0.503151   
O188     O      0.768810000000     0.878240000000     0.849080000000    -0.495925   
O189     O      0.858860000000     0.964650000000     0.819320000000    -0.870561   
O190     O      0.800290000000     0.887070000000     0.768200000000    -0.510129   
O191     O      0.762200000000     0.936910000000     0.784590000000    -0.50672    
O192     O      0.923330000000     0.034100000000     0.871990000000    -0.50284    
O193     O      0.784210000000     0.961430000000     0.866000000000    -0.50328    
O194     O      0.889130000000     0.896550000000     0.788430000000    -0.498312   
O195     O      0.944860000000     0.960470000000     0.850550000000    -0.494932   
O196     O      0.955970000000     0.825860000000     0.603110000000    -0.50477    
O197     O      0.024860000000     0.732350000000     0.516060000000    -0.503235   
O198     O      0.043320000000     0.877620000000     0.619570000000    -0.510331   
O199     O      0.019530000000     0.884790000000     0.538480000000    -0.495728   
O200     O      0.957880000000     0.741110000000     0.622160000000    -0.506829   
O201     O      0.118520000000     0.807850000000     0.536740000000    -0.498503   
O202     O      0.027320000000     0.800690000000     0.568680000000    -0.868625   
O203     O      0.088290000000     0.783080000000     0.617040000000    -0.506226   
O204     O      0.124580000000     0.871290000000     0.599740000000    -0.496243   
O205     O      0.954150000000     0.800170000000     0.521980000000    -0.506375   
O206     O      0.096620000000     0.870250000000     0.518070000000    -0.507628   
O207     O      0.999630000000     0.699190000000     0.596090000000    -0.49406    
O208     O      0.942080000000     0.708260000000     0.539530000000    -0.488121   
S1       S      0.238360000000     0.297050000000     0.912040000000    -0.036282   
S2       S      0.215160000000     0.277980000000     0.239190000000    -0.04596    
S3       S      0.496350000000     0.599490000000     0.157100000000    -0.0308749  
S4       S      0.305730000000     0.076730000000     0.416950000000    -0.0369921  
S5       S      0.525990000000     0.513990000000     0.913420000000    -0.0396747  
S6       S      0.563990000000     0.487760000000     0.143840000000    -0.0505122  
S7       S      0.238360000000     0.297050000000     0.412040000000    -0.0363239  
S8       S      0.215160000000     0.277980000000     0.739200000000    -0.0459405  
S9       S      0.496350000000     0.599490000000     0.657100000000    -0.0308338  
S10      S      0.305730000000     0.076730000000     0.916950000000    -0.0369215  
S11      S      0.525990000000     0.513990000000     0.413420000000    -0.0397195  
S12      S      0.563990000000     0.487760000000     0.643840000000    -0.0504037  
S13      S      0.238360000000     0.797050000000     0.912040000000    -0.036279   
S14      S      0.215160000000     0.777980000000     0.239190000000    -0.0459652  
S15      S      0.496350000000     0.099490000000     0.157100000000    -0.0308936  
S16      S      0.305730000000     0.576740000000     0.416950000000    -0.0369707  
S17      S      0.525990000000     0.013990000000     0.913420000000    -0.039755   
S18      S      0.564000000000     0.987760000000     0.143840000000    -0.0504758  
S19      S      0.238360000000     0.797050000000     0.412040000000    -0.0363209  
S20      S      0.215160000000     0.777980000000     0.739200000000    -0.0459458  
S21      S      0.496350000000     0.099490000000     0.657100000000    -0.0308526  
S22      S      0.305730000000     0.576740000000     0.916950000000    -0.0369001  
S23      S      0.525990000000     0.013990000000     0.413420000000    -0.0397999  
S24      S      0.564000000000     0.987760000000     0.643840000000    -0.0503672  
S25      S      0.738360000000     0.297050000000     0.912040000000    -0.0364356  
S26      S      0.715160000000     0.277980000000     0.239190000000    -0.0462407  
S27      S      0.996350000000     0.599490000000     0.157100000000    -0.0317027  
S28      S      0.805730000000     0.076730000000     0.416950000000    -0.0370506  
S29      S      0.025990000000     0.513990000000     0.913420000000    -0.0376923  
S30      S      0.063990000000     0.487760000000     0.143840000000    -0.0500919  
S31      S      0.738360000000     0.297050000000     0.412040000000    -0.0364781  
S32      S      0.715160000000     0.277980000000     0.739200000000    -0.0462208  
S33      S      0.996350000000     0.599490000000     0.657100000000    -0.0316609  
S34      S      0.805730000000     0.076730000000     0.916950000000    -0.0369796  
S35      S      0.025990000000     0.513990000000     0.413420000000    -0.0377323  
S36      S      0.063990000000     0.487760000000     0.643840000000    -0.0499839  
S37      S      0.738360000000     0.797050000000     0.912040000000    -0.03643    
S38      S      0.715160000000     0.777980000000     0.239190000000    -0.0462407  
S39      S      0.996350000000     0.099490000000     0.157100000000    -0.0317256  
S40      S      0.805730000000     0.576740000000     0.416950000000    -0.0370089  
S41      S      0.025990000000     0.013990000000     0.913420000000    -0.0377935  
S42      S      0.064000000000     0.987760000000     0.143840000000    -0.0500471  
S43      S      0.738360000000     0.797050000000     0.412040000000    -0.0364725  
S44      S      0.715160000000     0.777980000000     0.739200000000    -0.0462208  
S45      S      0.996350000000     0.099490000000     0.657100000000    -0.0316838  
S46      S      0.805730000000     0.576740000000     0.916950000000    -0.0369379  
S47      S      0.025990000000     0.013990000000     0.413420000000    -0.0378335  
S48      S      0.064000000000     0.987760000000     0.643840000000    -0.0499391  


