data_structure

_audit_creation_method RASPA-1.0
_audit_creation_date 2023-6-4
_audit_author_name 'Poobodin Mano'

_cell_length_a    29.5516
_cell_length_b    29.1962
_cell_length_c    30.4098
_cell_angle_alpha 90
_cell_angle_beta  90
_cell_angle_gamma 120
_cell_volume      22722.3

_symmetry_cell_setting          triclinic
_symmetry_space_group_name_Hall 'P 1'
_symmetry_space_group_name_H-M  'P 1'
_symmetry_Int_Tables_number     1

_symmetry_equiv_pos_as_xyz 'x,y,z'

loop_
_atom_site_label
_atom_site_type_symbol
_atom_site_fract_x
_atom_site_fract_y
_atom_site_fract_z
_atom_site_charge
C1       C      0.211060000000     0.385350000000     0.283760000000     0.522884   
C2       C      0.207240000000     0.381960000000     0.401780000000     0.527922   
C3       C      0.351480000000     0.512410000000     0.409200000000     0.530279   
C4       C      0.345960000000     0.386410000000     0.280840000000     0.524389   
C5       C      0.338060000000     0.369830000000     0.398970000000     0.521501   
C6       C      0.346350000000     0.526450000000     0.293050000000     0.524195   
C7       C      0.420500000000     0.310400000000     0.147270000000     0.522183   
C8       C      0.415230000000     0.295570000000     0.029560000000     0.521637   
C9       C      0.426640000000     0.165420000000     0.037520000000     0.525727   
C10      C      0.556480000000     0.307700000000     0.152700000000     0.519483   
C11      C      0.555900000000     0.306940000000     0.034250000000     0.528913   
C12      C      0.418540000000     0.170480000000     0.155910000000     0.524596   
C13      C      0.658150000000     0.397680000000     0.459350000000    -0.00847377 
C14      C      0.138820000000     0.304700000000     0.940640000000    -0.0344485  
C15      C      0.600960000000     0.368780000000     0.473780000000    -0.00579814 
C16      C      0.115770000000     0.290980000000     0.987330000000     0.0942001  
C17      C      0.105480000000     0.293670000000     0.211660000000    -0.00985011 
C18      C      0.624540000000     0.386100000000     0.191580000000    -0.035786   
C19      C      0.163210000000     0.322440000000     0.224430000000    -0.00568234 
C20      C      0.650390000000     0.401410000000     0.237530000000     0.093376   
C21      C      0.334510000000     0.591760000000     0.249940000000    -0.00849578 
C22      C      0.422570000000     0.600330000000     0.257010000000    -0.0349866  
C23      C      0.345300000000     0.108130000000     0.201510000000    -0.0075763  
C24      C      0.433140000000     0.112750000000     0.207920000000     0.0951215  
C25      C      0.358160000000     0.112950000000     0.483220000000    -0.00756525 
C26      C      0.446380000000     0.119790000000     0.978850000000    -0.0354074  
C27      C      0.332350000000     0.554800000000     0.470230000000    -0.00601188 
C28      C      0.420200000000     0.560850000000     0.967220000000     0.0943362  
C29      C      0.434370000000     0.361600000000     0.971240000000    -0.00803014 
C30      C      0.353400000000     0.272770000000     0.467580000000    -0.0351918  
C31      C      0.403720000000     0.387790000000     0.955250000000    -0.00635203 
C32      C      0.321060000000     0.298400000000     0.453700000000     0.0937019  
C33      C      0.435490000000     0.378540000000     0.202500000000    -0.00925628 
C34      C      0.343820000000     0.304960000000     0.183370000000    -0.0359097  
C35      C      0.406040000000     0.406250000000     0.218350000000    -0.00626329 
C36      C      0.328970000000     0.313120000000     0.229890000000     0.0946246  
C37      C      0.211060000000     0.385350000000     0.783760000000     0.522933   
C38      C      0.207240000000     0.381960000000     0.901770000000     0.528014   
C39      C      0.351480000000     0.512410000000     0.909200000000     0.530275   
C40      C      0.345960000000     0.386410000000     0.780840000000     0.524371   
C41      C      0.338060000000     0.369830000000     0.898970000000     0.521502   
C42      C      0.346350000000     0.526450000000     0.793050000000     0.524189   
C43      C      0.420500000000     0.310400000000     0.647270000000     0.522184   
C44      C      0.415230000000     0.295570000000     0.529560000000     0.521673   
C45      C      0.426640000000     0.165420000000     0.537520000000     0.525722   
C46      C      0.556480000000     0.307700000000     0.652700000000     0.519479   
C47      C      0.555900000000     0.306940000000     0.534250000000     0.528944   
C48      C      0.418540000000     0.170480000000     0.655910000000     0.524718   
C49      C      0.658150000000     0.397680000000     0.959350000000    -0.00848026 
C50      C      0.138820000000     0.304700000000     0.440640000000    -0.0344303  
C51      C      0.600960000000     0.368780000000     0.973780000000    -0.00579587 
C52      C      0.115770000000     0.290980000000     0.487330000000     0.0941584  
C53      C      0.105480000000     0.293670000000     0.711660000000    -0.00984142 
C54      C      0.624540000000     0.386100000000     0.691580000000    -0.0357868  
C55      C      0.163210000000     0.322440000000     0.724430000000    -0.00570588 
C56      C      0.650390000000     0.401410000000     0.737530000000     0.0933773  
C57      C      0.334510000000     0.591760000000     0.749940000000    -0.0084939  
C58      C      0.422570000000     0.600330000000     0.757010000000    -0.0349601  
C59      C      0.345300000000     0.108130000000     0.701510000000    -0.00757361 
C60      C      0.433140000000     0.112750000000     0.707920000000     0.0951263  
C61      C      0.358160000000     0.112950000000     0.983220000000    -0.00751017 
C62      C      0.446380000000     0.119790000000     0.478850000000    -0.035436   
C63      C      0.332350000000     0.554800000000     0.970230000000    -0.00596358 
C64      C      0.420200000000     0.560850000000     0.467220000000     0.0943412  
C65      C      0.434370000000     0.361600000000     0.471240000000    -0.00804422 
C66      C      0.353400000000     0.272770000000     0.967580000000    -0.0351908  
C67      C      0.403720000000     0.387790000000     0.455240000000    -0.00631981 
C68      C      0.321060000000     0.298400000000     0.953700000000     0.0936995  
C69      C      0.435490000000     0.378540000000     0.702500000000    -0.00925671 
C70      C      0.343820000000     0.304960000000     0.683370000000    -0.0359153  
C71      C      0.406040000000     0.406250000000     0.718350000000    -0.00626281 
C72      C      0.328970000000     0.313120000000     0.729890000000     0.0946299  
C73      C      0.211060000000     0.885350000000     0.283760000000     0.522877   
C74      C      0.207240000000     0.881960000000     0.401780000000     0.527961   
C75      C      0.351480000000     0.012410000000     0.409200000000     0.530359   
C76      C      0.345960000000     0.886400000000     0.280840000000     0.524327   
C77      C      0.338060000000     0.869830000000     0.398970000000     0.521298   
C78      C      0.346350000000     0.026440000000     0.293050000000     0.524275   
C79      C      0.420500000000     0.810400000000     0.147270000000     0.52218    
C80      C      0.415230000000     0.795570000000     0.029560000000     0.521658   
C81      C      0.426640000000     0.665420000000     0.037520000000     0.52572    
C82      C      0.556480000000     0.807700000000     0.152700000000     0.519483   
C83      C      0.555900000000     0.806940000000     0.034250000000     0.528909   
C84      C      0.418540000000     0.670480000000     0.155910000000     0.524594   
C85      C      0.658150000000     0.897680000000     0.459350000000    -0.00847021 
C86      C      0.138820000000     0.804710000000     0.940640000000    -0.034363   
C87      C      0.600960000000     0.868780000000     0.473780000000    -0.00579559 
C88      C      0.115770000000     0.790980000000     0.987330000000     0.0941659  
C89      C      0.105480000000     0.793670000000     0.211660000000    -0.00984158 
C90      C      0.624530000000     0.886100000000     0.191580000000    -0.0357798  
C91      C      0.163210000000     0.822440000000     0.224430000000    -0.0056839  
C92      C      0.650390000000     0.901410000000     0.237530000000     0.0933395  
C93      C      0.334510000000     0.091760000000     0.249940000000    -0.00849551 
C94      C      0.422570000000     0.100330000000     0.257010000000    -0.0349998  
C95      C      0.345300000000     0.608130000000     0.201510000000    -0.00757524 
C96      C      0.433140000000     0.612750000000     0.207920000000     0.0951178  
C97      C      0.358160000000     0.612950000000     0.483220000000    -0.00757825 
C98      C      0.446380000000     0.619790000000     0.978850000000    -0.0353912  
C99      C      0.332350000000     0.054800000000     0.470230000000    -0.00601468 
C100     C      0.420200000000     0.060850000000     0.967220000000     0.0943523  
C101     C      0.434370000000     0.861600000000     0.971240000000    -0.00801691 
C102     C      0.353400000000     0.772770000000     0.467580000000    -0.0351739  
C103     C      0.403720000000     0.887790000000     0.955250000000    -0.00635732 
C104     C      0.321060000000     0.798410000000     0.453700000000     0.0937061  
C105     C      0.435490000000     0.878540000000     0.202500000000    -0.00924353 
C106     C      0.343820000000     0.804960000000     0.183370000000    -0.0359078  
C107     C      0.406040000000     0.906260000000     0.218350000000    -0.00628739 
C108     C      0.328970000000     0.813110000000     0.229890000000     0.0946256  
C109     C      0.211060000000     0.885350000000     0.783760000000     0.522926   
C110     C      0.207240000000     0.881960000000     0.901770000000     0.528054   
C111     C      0.351480000000     0.012410000000     0.909200000000     0.530355   
C112     C      0.345960000000     0.886400000000     0.780840000000     0.52431    
C113     C      0.338060000000     0.869830000000     0.898970000000     0.5213     
C114     C      0.346350000000     0.026440000000     0.793050000000     0.524269   
C115     C      0.420500000000     0.810400000000     0.647270000000     0.522181   
C116     C      0.415230000000     0.795570000000     0.529560000000     0.521694   
C117     C      0.426640000000     0.665420000000     0.537520000000     0.525715   
C118     C      0.556480000000     0.807700000000     0.652700000000     0.519479   
C119     C      0.555900000000     0.806940000000     0.534250000000     0.52894    
C120     C      0.418540000000     0.670480000000     0.655910000000     0.524716   
C121     C      0.658150000000     0.897680000000     0.959350000000    -0.00847671 
C122     C      0.138820000000     0.804710000000     0.440640000000    -0.0343448  
C123     C      0.600960000000     0.868780000000     0.973780000000    -0.00579332 
C124     C      0.115770000000     0.790980000000     0.487330000000     0.0941243  
C125     C      0.105480000000     0.793670000000     0.711660000000    -0.00983288 
C126     C      0.624530000000     0.886100000000     0.691580000000    -0.0357805  
C127     C      0.163210000000     0.822440000000     0.724430000000    -0.00570743 
C128     C      0.650390000000     0.901410000000     0.737530000000     0.0933407  
C129     C      0.334510000000     0.091760000000     0.749940000000    -0.00849364 
C130     C      0.422570000000     0.100330000000     0.757010000000    -0.0349733  
C131     C      0.345300000000     0.608130000000     0.701510000000    -0.00757255 
C132     C      0.433140000000     0.612750000000     0.707920000000     0.0951225  
C133     C      0.358160000000     0.612950000000     0.983220000000    -0.00752314 
C134     C      0.446380000000     0.619790000000     0.478850000000    -0.0354198  
C135     C      0.332350000000     0.054800000000     0.970230000000    -0.00596638 
C136     C      0.420200000000     0.060850000000     0.467220000000     0.0943573  
C137     C      0.434370000000     0.861600000000     0.471240000000    -0.00803099 
C138     C      0.353400000000     0.772770000000     0.967580000000    -0.0351729  
C139     C      0.403720000000     0.887790000000     0.455240000000    -0.0063251  
C140     C      0.321060000000     0.798410000000     0.953700000000     0.0937038  
C141     C      0.435490000000     0.878540000000     0.702500000000    -0.00924396 
C142     C      0.343820000000     0.804960000000     0.683370000000    -0.0359133  
C143     C      0.406040000000     0.906260000000     0.718350000000    -0.00628691 
C144     C      0.328970000000     0.813110000000     0.729890000000     0.0946309  
C145     C      0.711060000000     0.385350000000     0.283760000000     0.522813   
C146     C      0.707240000000     0.381960000000     0.401780000000     0.52791    
C147     C      0.851480000000     0.512410000000     0.409200000000     0.530271   
C148     C      0.845960000000     0.386410000000     0.280840000000     0.524422   
C149     C      0.838060000000     0.369830000000     0.398970000000     0.521294   
C150     C      0.846350000000     0.526450000000     0.293050000000     0.524191   
C151     C      0.920500000000     0.310400000000     0.147270000000     0.522108   
C152     C      0.915230000000     0.295570000000     0.029560000000     0.521455   
C153     C      0.926640000000     0.165420000000     0.037520000000     0.525643   
C154     C      0.056480000000     0.307700000000     0.152700000000     0.519164   
C155     C      0.055900000000     0.306940000000     0.034250000000     0.528559   
C156     C      0.918530000000     0.170480000000     0.155910000000     0.524339   
C157     C      0.158150000000     0.397680000000     0.459350000000    -0.00843805 
C158     C      0.638820000000     0.304700000000     0.940640000000    -0.0344262  
C159     C      0.100960000000     0.368780000000     0.473780000000    -0.00586013 
C160     C      0.615770000000     0.290980000000     0.987330000000     0.0941258  
C161     C      0.605480000000     0.293670000000     0.211660000000    -0.00978878 
C162     C      0.124540000000     0.386100000000     0.191580000000    -0.0357915  
C163     C      0.663210000000     0.322440000000     0.224430000000    -0.00574344 
C164     C      0.150390000000     0.401410000000     0.237530000000     0.0933687  
C165     C      0.834510000000     0.591760000000     0.249940000000    -0.00848242 
C166     C      0.922570000000     0.600330000000     0.257010000000    -0.0349697  
C167     C      0.845300000000     0.108130000000     0.201510000000    -0.0075977  
C168     C      0.933140000000     0.112750000000     0.207920000000     0.0951079  
C169     C      0.858160000000     0.112950000000     0.483220000000    -0.00759491 
C170     C      0.946380000000     0.119790000000     0.978850000000    -0.035339   
C171     C      0.832350000000     0.554800000000     0.470230000000    -0.00600971 
C172     C      0.920200000000     0.560850000000     0.967220000000     0.0942793  
C173     C      0.934370000000     0.361600000000     0.971240000000    -0.00799159 
C174     C      0.853400000000     0.272770000000     0.467580000000    -0.0351791  
C175     C      0.903720000000     0.387790000000     0.955250000000    -0.00638031 
C176     C      0.821060000000     0.298400000000     0.453700000000     0.0936763  
C177     C      0.935490000000     0.378540000000     0.202500000000    -0.00922196 
C178     C      0.843820000000     0.304960000000     0.183370000000    -0.035919   
C179     C      0.906040000000     0.406250000000     0.218350000000    -0.00630565 
C180     C      0.828970000000     0.313120000000     0.229890000000     0.0946374  
C181     C      0.711060000000     0.385350000000     0.783760000000     0.522862   
C182     C      0.707240000000     0.381960000000     0.901770000000     0.528003   
C183     C      0.851480000000     0.512410000000     0.909200000000     0.530267   
C184     C      0.845960000000     0.386410000000     0.780840000000     0.524404   
C185     C      0.838060000000     0.369830000000     0.898970000000     0.521296   
C186     C      0.846350000000     0.526450000000     0.793050000000     0.524185   
C187     C      0.920500000000     0.310400000000     0.647270000000     0.522109   
C188     C      0.915230000000     0.295570000000     0.529560000000     0.521492   
C189     C      0.926640000000     0.165420000000     0.537520000000     0.525638   
C190     C      0.056480000000     0.307700000000     0.652700000000     0.51916    
C191     C      0.055900000000     0.306940000000     0.534250000000     0.528589   
C192     C      0.918530000000     0.170480000000     0.655910000000     0.524461   
C193     C      0.158150000000     0.397680000000     0.959350000000    -0.00844454 
C194     C      0.638820000000     0.304700000000     0.440640000000    -0.034408   
C195     C      0.100960000000     0.368780000000     0.973780000000    -0.00585787 
C196     C      0.615770000000     0.290980000000     0.487330000000     0.094084   
C197     C      0.605480000000     0.293670000000     0.711660000000    -0.00978008 
C198     C      0.124540000000     0.386100000000     0.691580000000    -0.0357923  
C199     C      0.663210000000     0.322440000000     0.724430000000    -0.00576699 
C200     C      0.150390000000     0.401410000000     0.737530000000     0.0933699  
C201     C      0.834510000000     0.591760000000     0.749940000000    -0.00848055 
C202     C      0.922570000000     0.600330000000     0.757010000000    -0.0349433  
C203     C      0.845300000000     0.108130000000     0.701510000000    -0.00759501 
C204     C      0.933140000000     0.112750000000     0.707920000000     0.0951127  
C205     C      0.858160000000     0.112950000000     0.983220000000    -0.00753971 
C206     C      0.946380000000     0.119790000000     0.478850000000    -0.0353676  
C207     C      0.832350000000     0.554800000000     0.970230000000    -0.00596137 
C208     C      0.920200000000     0.560850000000     0.467220000000     0.0942842  
C209     C      0.934370000000     0.361600000000     0.471240000000    -0.00800568 
C210     C      0.853400000000     0.272770000000     0.967580000000    -0.0351781  
C211     C      0.903720000000     0.387790000000     0.455240000000    -0.00634808 
C212     C      0.821060000000     0.298400000000     0.953700000000     0.093674   
C213     C      0.935490000000     0.378540000000     0.702500000000    -0.00922239 
C214     C      0.843820000000     0.304960000000     0.683370000000    -0.0359246  
C215     C      0.906040000000     0.406250000000     0.718350000000    -0.00630517 
C216     C      0.828970000000     0.313120000000     0.729890000000     0.0946426  
C217     C      0.711060000000     0.885350000000     0.283760000000     0.52286    
C218     C      0.707240000000     0.881960000000     0.401780000000     0.527944   
C219     C      0.851480000000     0.012410000000     0.409200000000     0.530348   
C220     C      0.845960000000     0.886400000000     0.280840000000     0.524311   
C221     C      0.838060000000     0.869830000000     0.398970000000     0.521506   
C222     C      0.846350000000     0.026440000000     0.293050000000     0.524274   
C223     C      0.920500000000     0.810400000000     0.147270000000     0.522303   
C224     C      0.915240000000     0.795570000000     0.029560000000     0.521518   
C225     C      0.926640000000     0.665420000000     0.037520000000     0.525648   
C226     C      0.056480000000     0.807700000000     0.152700000000     0.519155   
C227     C      0.055900000000     0.806940000000     0.034250000000     0.528556   
C228     C      0.918540000000     0.670480000000     0.155910000000     0.524331   
C229     C      0.158150000000     0.897680000000     0.459350000000    -0.00843424 
C230     C      0.638820000000     0.804710000000     0.940640000000    -0.0343217  
C231     C      0.100960000000     0.868780000000     0.473780000000    -0.0058572  
C232     C      0.615770000000     0.790980000000     0.987330000000     0.0940889  
C233     C      0.605480000000     0.793670000000     0.211660000000    -0.00979073 
C234     C      0.124530000000     0.886100000000     0.191580000000    -0.0357971  
C235     C      0.663210000000     0.822440000000     0.224430000000    -0.00571761 
C236     C      0.150390000000     0.901410000000     0.237530000000     0.0933648  
C237     C      0.834510000000     0.091760000000     0.249940000000    -0.00848805 
C238     C      0.922570000000     0.100330000000     0.257010000000    -0.0350018  
C239     C      0.845300000000     0.608130000000     0.201510000000    -0.00761264 
C240     C      0.933140000000     0.612750000000     0.207920000000     0.0950504  
C241     C      0.858160000000     0.612950000000     0.483220000000    -0.00757321 
C242     C      0.946380000000     0.619790000000     0.978850000000    -0.0353382  
C243     C      0.832360000000     0.054800000000     0.470230000000    -0.00593611 
C244     C      0.920200000000     0.060850000000     0.967220000000     0.0942414  
C245     C      0.934370000000     0.861600000000     0.971240000000    -0.00800315 
C246     C      0.853400000000     0.772770000000     0.467580000000    -0.0351709  
C247     C      0.903720000000     0.887790000000     0.955250000000    -0.00636689 
C248     C      0.821060000000     0.798410000000     0.453700000000     0.0937013  
C249     C      0.935500000000     0.878540000000     0.202500000000    -0.00926442 
C250     C      0.843820000000     0.804960000000     0.183370000000    -0.0359057  
C251     C      0.906040000000     0.906260000000     0.218350000000    -0.00628889 
C252     C      0.828970000000     0.813110000000     0.229890000000     0.0946202  
C253     C      0.711060000000     0.885350000000     0.783760000000     0.522909   
C254     C      0.707240000000     0.881960000000     0.901770000000     0.528037   
C255     C      0.851480000000     0.012410000000     0.909200000000     0.530344   
C256     C      0.845960000000     0.886400000000     0.780840000000     0.524293   
C257     C      0.838060000000     0.869830000000     0.898970000000     0.521508   
C258     C      0.846350000000     0.026440000000     0.793050000000     0.524268   
C259     C      0.920500000000     0.810400000000     0.647270000000     0.522304   
C260     C      0.915240000000     0.795570000000     0.529560000000     0.521554   
C261     C      0.926640000000     0.665420000000     0.537520000000     0.525643   
C262     C      0.056480000000     0.807700000000     0.652700000000     0.519151   
C263     C      0.055900000000     0.806940000000     0.534250000000     0.528587   
C264     C      0.918540000000     0.670480000000     0.655910000000     0.524452   
C265     C      0.158150000000     0.897680000000     0.959350000000    -0.00844073 
C266     C      0.638820000000     0.804710000000     0.440640000000    -0.0343035  
C267     C      0.100960000000     0.868780000000     0.973780000000    -0.00585494 
C268     C      0.615770000000     0.790980000000     0.487330000000     0.0940471  
C269     C      0.605480000000     0.793670000000     0.711660000000    -0.00978204 
C270     C      0.124530000000     0.886100000000     0.691580000000    -0.0357979  
C271     C      0.663210000000     0.822440000000     0.724430000000    -0.00574115 
C272     C      0.150390000000     0.901410000000     0.737530000000     0.0933661  
C273     C      0.834510000000     0.091760000000     0.749940000000    -0.00848617 
C274     C      0.922570000000     0.100330000000     0.757010000000    -0.0349754  
C275     C      0.845300000000     0.608130000000     0.701510000000    -0.00760993 
C276     C      0.933140000000     0.612750000000     0.707920000000     0.0950552  
C277     C      0.858160000000     0.612950000000     0.983220000000    -0.00751799 
C278     C      0.946380000000     0.619790000000     0.478850000000    -0.0353668  
C279     C      0.832360000000     0.054800000000     0.970230000000    -0.00588781 
C280     C      0.920200000000     0.060850000000     0.467220000000     0.0942464  
C281     C      0.934370000000     0.861600000000     0.471240000000    -0.00801723 
C282     C      0.853400000000     0.772770000000     0.967580000000    -0.0351698  
C283     C      0.903720000000     0.887790000000     0.455240000000    -0.00633466 
C284     C      0.821060000000     0.798410000000     0.953700000000     0.093699   
C285     C      0.935500000000     0.878540000000     0.702500000000    -0.00926485 
C286     C      0.843820000000     0.804960000000     0.683370000000    -0.0359113  
C287     C      0.906040000000     0.906260000000     0.718350000000    -0.00628841 
C288     C      0.828970000000     0.813110000000     0.729890000000     0.0946255  
Fe1      Fe     0.269380000000     0.461980000000     0.348070000000     1.35017    
Fe2      Fe     0.365280000000     0.457600000000     0.344550000000     1.35242    
Fe3      Fe     0.265680000000     0.361130000000     0.341000000000     1.35145    
Fe4      Fe     0.399980000000     0.224440000000     0.092990000000     1.35325    
Fe5      Fe     0.499770000000     0.228240000000     0.096390000000     1.35376    
Fe6      Fe     0.496450000000     0.325400000000     0.090550000000     1.34884    
Fe7      Fe     0.269380000000     0.461980000000     0.848070000000     1.35017    
Fe8      Fe     0.365280000000     0.457600000000     0.844550000000     1.35229    
Fe9      Fe     0.265680000000     0.361130000000     0.841000000000     1.3516     
Fe10     Fe     0.399980000000     0.224440000000     0.592990000000     1.35326    
Fe11     Fe     0.499770000000     0.228240000000     0.596390000000     1.35371    
Fe12     Fe     0.496450000000     0.325400000000     0.590550000000     1.34885    
Fe13     Fe     0.269380000000     0.961980000000     0.348070000000     1.35013    
Fe14     Fe     0.365280000000     0.957600000000     0.344550000000     1.35245    
Fe15     Fe     0.265680000000     0.861130000000     0.341000000000     1.35138    
Fe16     Fe     0.399980000000     0.724440000000     0.092990000000     1.35323    
Fe17     Fe     0.499770000000     0.728240000000     0.096390000000     1.35375    
Fe18     Fe     0.496450000000     0.825400000000     0.090550000000     1.34883    
Fe19     Fe     0.269380000000     0.961980000000     0.848070000000     1.35014    
Fe20     Fe     0.365280000000     0.957600000000     0.844550000000     1.35232    
Fe21     Fe     0.265680000000     0.861130000000     0.841000000000     1.35153    
Fe22     Fe     0.399980000000     0.724440000000     0.592990000000     1.35323    
Fe23     Fe     0.499770000000     0.728240000000     0.596390000000     1.3537     
Fe24     Fe     0.496450000000     0.825400000000     0.590550000000     1.34884    
Fe25     Fe     0.769380000000     0.461980000000     0.348070000000     1.35013    
Fe26     Fe     0.865280000000     0.457600000000     0.344550000000     1.35233    
Fe27     Fe     0.765680000000     0.361130000000     0.341000000000     1.35144    
Fe28     Fe     0.899980000000     0.224440000000     0.092990000000     1.35312    
Fe29     Fe     0.999770000000     0.228240000000     0.096390000000     1.35154    
Fe30     Fe     0.996450000000     0.325400000000     0.090550000000     1.34674    
Fe31     Fe     0.769380000000     0.461980000000     0.848070000000     1.35013    
Fe32     Fe     0.865280000000     0.457600000000     0.844550000000     1.35219    
Fe33     Fe     0.765680000000     0.361130000000     0.841000000000     1.35159    
Fe34     Fe     0.899980000000     0.224440000000     0.592990000000     1.35312    
Fe35     Fe     0.999770000000     0.228240000000     0.596390000000     1.35149    
Fe36     Fe     0.996450000000     0.325400000000     0.590550000000     1.34675    
Fe37     Fe     0.769380000000     0.961980000000     0.348070000000     1.35009    
Fe38     Fe     0.865280000000     0.957600000000     0.344550000000     1.35239    
Fe39     Fe     0.765680000000     0.861130000000     0.341000000000     1.35133    
Fe40     Fe     0.899980000000     0.724440000000     0.092990000000     1.35314    
Fe41     Fe     0.999770000000     0.728240000000     0.096390000000     1.35155    
Fe42     Fe     0.996450000000     0.825400000000     0.090550000000     1.34662    
Fe43     Fe     0.769380000000     0.961980000000     0.848070000000     1.3501     
Fe44     Fe     0.865280000000     0.957600000000     0.844550000000     1.35225    
Fe45     Fe     0.765680000000     0.861130000000     0.841000000000     1.35148    
Fe46     Fe     0.899980000000     0.724440000000     0.592990000000     1.35314    
Fe47     Fe     0.999770000000     0.728240000000     0.596390000000     1.3515     
Fe48     Fe     0.996450000000     0.825400000000     0.590550000000     1.34663    
H1       H      0.593460000000     0.396640000000     0.993160000000     0.0346066  
H2       H      0.183760000000     0.411550000000     0.488880000000     0.0408295  
H3       H      0.148360000000     0.301560000000     0.010920000000     0.0208488  
H4       H      0.162980000000     0.285780000000     0.934860000000     0.0467378  
H5       H      0.575430000000     0.356910000000     0.444210000000     0.0388766  
H6       H      0.665980000000     0.433220000000     0.439930000000     0.0336068  
H7       H      0.106580000000     0.287900000000     0.416070000000     0.048287   
H8       H      0.577670000000     0.218820000000     0.020790000000     0.0918228  
H9       H      0.543230000000     0.223900000000     0.976600000000     0.0978992  
H10      H      0.170820000000     0.294660000000     0.243790000000     0.03269    
H11      H      0.581120000000     0.281680000000     0.241930000000     0.0385525  
H12      H      0.619140000000     0.392230000000     0.262200000000     0.0202221  
H13      H      0.599730000000     0.404470000000     0.186810000000     0.0487961  
H14      H      0.187410000000     0.333070000000     0.194100000000     0.0366739  
H15      H      0.096530000000     0.257040000000     0.193450000000     0.0334465  
H16      H      0.655370000000     0.402720000000     0.165800000000     0.049105   
H17      H      0.190410000000     0.474640000000     0.269140000000     0.0919351  
H18      H      0.223450000000     0.467600000000     0.224980000000     0.0966836  
H19      H      0.325000000000     0.571680000000     0.181160000000     0.0353541  
H20      H      0.291960000000     0.564160000000     0.254380000000     0.0355165  
H21      H      0.421470000000     0.574920000000     0.190430000000     0.0205133  
H22      H      0.443590000000     0.579620000000     0.268000000000     0.0497309  
H23      H      0.327180000000     0.132580000000     0.193540000000     0.0378806  
H24      H      0.344930000000     0.127750000000     0.269710000000     0.0357097  
H25      H      0.438660000000     0.138110000000     0.275640000000     0.0467262  
H26      H      0.502930000000     0.143800000000     0.172000000000     0.0901149  
H27      H      0.500670000000     0.187350000000     0.210200000000     0.0998559  
H28      H      0.320570000000     0.530860000000     0.500910000000     0.0383522  
H29      H      0.331600000000     0.118660000000     0.505560000000     0.0393632  
H30      H      0.413300000000     0.538560000000     0.998570000000     0.0185989  
H31      H      0.482170000000     0.130610000000     0.998420000000     0.0456142  
H32      H      0.295970000000     0.543760000000     0.451510000000     0.0397382  
H33      H      0.363150000000     0.136470000000     0.452990000000     0.0392243  
H34      H      0.458330000000     0.143420000000     0.947980000000     0.0454995  
H35      H      0.448900000000     0.513810000000     0.941920000000     0.0924729  
H36      H      0.458550000000     0.566010000000     0.907700000000     0.0854633  
H37      H      0.393290000000     0.403580000000     0.984420000000     0.038661   
H38      H      0.466390000000     0.389370000000     0.993320000000     0.038942   
H39      H      0.304110000000     0.305130000000     0.984070000000     0.0206145  
H40      H      0.328080000000     0.236490000000     0.487020000000     0.0482455  
H41      H      0.429920000000     0.422250000000     0.934370000000     0.0362752  
H42      H      0.452900000000     0.354530000000     0.442160000000     0.0382227  
H43      H      0.366360000000     0.260680000000     0.437580000000     0.0479521  
H44      H      0.245850000000     0.265960000000     0.427420000000     0.0925982  
H45      H      0.290780000000     0.261970000000     0.392860000000     0.085444   
H46      H      0.433300000000     0.441620000000     0.237920000000     0.0370413  
H47      H      0.451380000000     0.367840000000     0.231390000000     0.0419862  
H48      H      0.337380000000     0.288780000000     0.253080000000     0.0211125  
H49      H      0.324180000000     0.261710000000     0.176680000000     0.0504163  
H50      H      0.393480000000     0.420260000000     0.189320000000     0.0392902  
H51      H      0.469310000000     0.406570000000     0.182030000000     0.0358764  
H52      H      0.328680000000     0.322370000000     0.158920000000     0.0486945  
H53      H      0.256030000000     0.278750000000     0.260930000000     0.0892416  
H54      H      0.264540000000     0.322810000000     0.219070000000     0.0975581  
H55      H      0.593460000000     0.396640000000     0.493160000000     0.0345964  
H56      H      0.183760000000     0.411550000000     0.988880000000     0.0408428  
H57      H      0.148360000000     0.301560000000     0.510910000000     0.0208783  
H58      H      0.162980000000     0.285780000000     0.434860000000     0.0467265  
H59      H      0.575430000000     0.356910000000     0.944210000000     0.0388772  
H60      H      0.665980000000     0.433220000000     0.939930000000     0.0336106  
H61      H      0.106580000000     0.287900000000     0.916070000000     0.0482896  
H62      H      0.577670000000     0.218820000000     0.520790000000     0.0918495  
H63      H      0.543230000000     0.223900000000     0.476600000000     0.0978936  
H64      H      0.170820000000     0.294660000000     0.743790000000     0.0326936  
H65      H      0.581120000000     0.281680000000     0.741930000000     0.0385511  
H66      H      0.619140000000     0.392230000000     0.762200000000     0.0202211  
H67      H      0.599730000000     0.404470000000     0.686810000000     0.0487976  
H68      H      0.187410000000     0.333070000000     0.694110000000     0.0366838  
H69      H      0.096530000000     0.257040000000     0.693450000000     0.0334461  
H70      H      0.655370000000     0.402720000000     0.665800000000     0.0491078  
H71      H      0.190410000000     0.474640000000     0.769140000000     0.0919343  
H72      H      0.223450000000     0.467600000000     0.724980000000     0.0966833  
H73      H      0.325000000000     0.571680000000     0.681160000000     0.0353545  
H74      H      0.291960000000     0.564160000000     0.754390000000     0.0355172  
H75      H      0.421470000000     0.574920000000     0.690430000000     0.0205153  
H76      H      0.443590000000     0.579620000000     0.768010000000     0.0497233  
H77      H      0.327180000000     0.132580000000     0.693540000000     0.0378798  
H78      H      0.344930000000     0.127750000000     0.769710000000     0.0357082  
H79      H      0.438660000000     0.138110000000     0.775650000000     0.0467129  
H80      H      0.502930000000     0.143800000000     0.672000000000     0.0901217  
H81      H      0.500670000000     0.187350000000     0.710200000000     0.0998605  
H82      H      0.320570000000     0.530860000000     0.000920000000     0.0383094  
H83      H      0.331600000000     0.118660000000     0.005560000000     0.0393269  
H84      H      0.413300000000     0.538560000000     0.498570000000     0.0185872  
H85      H      0.482170000000     0.130610000000     0.498420000000     0.0456075  
H86      H      0.295970000000     0.543760000000     0.951510000000     0.0397346  
H87      H      0.363150000000     0.136470000000     0.952990000000     0.0392175  
H88      H      0.458330000000     0.143420000000     0.447980000000     0.0455029  
H89      H      0.448900000000     0.513810000000     0.441920000000     0.0924704  
H90      H      0.458550000000     0.566010000000     0.407700000000     0.0854628  
H91      H      0.393290000000     0.403580000000     0.484420000000     0.0386437  
H92      H      0.466390000000     0.389370000000     0.493320000000     0.0389345  
H93      H      0.304110000000     0.305130000000     0.484070000000     0.0206078  
H94      H      0.328080000000     0.236490000000     0.987020000000     0.0482562  
H95      H      0.429920000000     0.422250000000     0.434370000000     0.036265   
H96      H      0.452900000000     0.354530000000     0.942160000000     0.0382223  
H97      H      0.366360000000     0.260680000000     0.937580000000     0.0479546  
H98      H      0.245850000000     0.265960000000     0.927430000000     0.0926002  
H99      H      0.290780000000     0.261970000000     0.892860000000     0.0854465  
H100     H      0.433300000000     0.441620000000     0.737920000000     0.0370437  
H101     H      0.451380000000     0.367840000000     0.731390000000     0.0419857  
H102     H      0.337380000000     0.288780000000     0.753080000000     0.0211118  
H103     H      0.324180000000     0.261710000000     0.676680000000     0.0504173  
H104     H      0.393480000000     0.420260000000     0.689320000000     0.0392945  
H105     H      0.469310000000     0.406570000000     0.682030000000     0.0358784  
H106     H      0.328680000000     0.322370000000     0.658920000000     0.0486966  
H107     H      0.256030000000     0.278750000000     0.760930000000     0.0892893  
H108     H      0.264540000000     0.322810000000     0.719070000000     0.0975457  
H109     H      0.593460000000     0.896640000000     0.993160000000     0.0345975  
H110     H      0.183760000000     0.911550000000     0.488880000000     0.040817   
H111     H      0.148360000000     0.801560000000     0.010920000000     0.0208538  
H112     H      0.162980000000     0.785780000000     0.934860000000     0.0467058  
H113     H      0.575430000000     0.856920000000     0.444210000000     0.0388667  
H114     H      0.665980000000     0.933220000000     0.439930000000     0.0335955  
H115     H      0.106580000000     0.787900000000     0.416070000000     0.0482657  
H116     H      0.577670000000     0.718820000000     0.020790000000     0.0918258  
H117     H      0.543240000000     0.723910000000     0.976600000000     0.0979302  
H118     H      0.170820000000     0.794660000000     0.243790000000     0.0326899  
H119     H      0.581110000000     0.781680000000     0.241930000000     0.0385509  
H120     H      0.619150000000     0.892230000000     0.262200000000     0.0202236  
H121     H      0.599730000000     0.904470000000     0.186810000000     0.0487951  
H122     H      0.187410000000     0.833070000000     0.194100000000     0.0366719  
H123     H      0.096530000000     0.757040000000     0.193450000000     0.033445   
H124     H      0.655370000000     0.902720000000     0.165800000000     0.0490938  
H125     H      0.190410000000     0.974640000000     0.269140000000     0.0919229  
H126     H      0.223450000000     0.967600000000     0.224980000000     0.0966693  
H127     H      0.325000000000     0.071680000000     0.181160000000     0.0353662  
H128     H      0.291960000000     0.064160000000     0.254380000000     0.0355395  
H129     H      0.421470000000     0.074920000000     0.190430000000     0.0205232  
H130     H      0.443590000000     0.079620000000     0.268000000000     0.0497431  
H131     H      0.327180000000     0.632580000000     0.193540000000     0.0378763  
H132     H      0.344930000000     0.627750000000     0.269710000000     0.0357045  
H133     H      0.438660000000     0.638110000000     0.275640000000     0.0467219  
H134     H      0.502930000000     0.643800000000     0.172000000000     0.0901091  
H135     H      0.500670000000     0.687350000000     0.210200000000     0.0998547  
H136     H      0.320570000000     0.030860000000     0.500910000000     0.0383669  
H137     H      0.331600000000     0.618660000000     0.505560000000     0.0393635  
H138     H      0.413300000000     0.038560000000     0.998570000000     0.0186091  
H139     H      0.482170000000     0.630610000000     0.998420000000     0.0456073  
H140     H      0.295970000000     0.043760000000     0.451510000000     0.0397511  
H141     H      0.363160000000     0.636470000000     0.452990000000     0.0392298  
H142     H      0.458330000000     0.643430000000     0.947980000000     0.0454901  
H143     H      0.448900000000     0.013810000000     0.941920000000     0.0925003  
H144     H      0.458560000000     0.066010000000     0.907700000000     0.0854783  
H145     H      0.393290000000     0.903580000000     0.984420000000     0.0386533  
H146     H      0.466400000000     0.889370000000     0.993320000000     0.0389286  
H147     H      0.304120000000     0.805130000000     0.984070000000     0.0206005  
H148     H      0.328080000000     0.736490000000     0.487020000000     0.0482495  
H149     H      0.429920000000     0.922250000000     0.934370000000     0.0362659  
H150     H      0.452900000000     0.854530000000     0.442160000000     0.0382141  
H151     H      0.366360000000     0.760680000000     0.437580000000     0.0479467  
H152     H      0.245850000000     0.765950000000     0.427420000000     0.0926192  
H153     H      0.290780000000     0.761970000000     0.392860000000     0.0854432  
H154     H      0.433300000000     0.941620000000     0.237920000000     0.037036   
H155     H      0.451380000000     0.867840000000     0.231390000000     0.0419795  
H156     H      0.337380000000     0.788780000000     0.253080000000     0.0211014  
H157     H      0.324180000000     0.761710000000     0.176680000000     0.050415   
H158     H      0.393480000000     0.920270000000     0.189320000000     0.039287   
H159     H      0.469310000000     0.906570000000     0.182030000000     0.0358665  
H160     H      0.328680000000     0.822370000000     0.158920000000     0.0486955  
H161     H      0.256030000000     0.778750000000     0.260930000000     0.0892201  
H162     H      0.264540000000     0.822810000000     0.219070000000     0.0975231  
H163     H      0.593460000000     0.896640000000     0.493160000000     0.0345874  
H164     H      0.183760000000     0.911550000000     0.988880000000     0.0408303  
H165     H      0.148360000000     0.801560000000     0.510910000000     0.0208832  
H166     H      0.162980000000     0.785780000000     0.434860000000     0.0466945  
H167     H      0.575430000000     0.856920000000     0.944210000000     0.0388673  
H168     H      0.665980000000     0.933220000000     0.939930000000     0.0335992  
H169     H      0.106580000000     0.787900000000     0.916070000000     0.0482682  
H170     H      0.577670000000     0.718820000000     0.520790000000     0.0918525  
H171     H      0.543240000000     0.723910000000     0.476600000000     0.0979247  
H172     H      0.170820000000     0.794660000000     0.743790000000     0.0326935  
H173     H      0.581110000000     0.781680000000     0.741930000000     0.0385495  
H174     H      0.619150000000     0.892230000000     0.762200000000     0.0202226  
H175     H      0.599730000000     0.904470000000     0.686810000000     0.0487966  
H176     H      0.187410000000     0.833070000000     0.694110000000     0.0366819  
H177     H      0.096530000000     0.757040000000     0.693450000000     0.0334446  
H178     H      0.655370000000     0.902720000000     0.665800000000     0.0490967  
H179     H      0.190410000000     0.974640000000     0.769140000000     0.0919221  
H180     H      0.223450000000     0.967600000000     0.724980000000     0.096669   
H181     H      0.325000000000     0.071680000000     0.681160000000     0.0353666  
H182     H      0.291960000000     0.064160000000     0.754390000000     0.0355402  
H183     H      0.421470000000     0.074920000000     0.690430000000     0.0205252  
H184     H      0.443590000000     0.079620000000     0.768010000000     0.0497354  
H185     H      0.327180000000     0.632580000000     0.693540000000     0.0378756  
H186     H      0.344930000000     0.627750000000     0.769710000000     0.035703   
H187     H      0.438660000000     0.638110000000     0.775650000000     0.0467086  
H188     H      0.502930000000     0.643800000000     0.672000000000     0.0901158  
H189     H      0.500670000000     0.687350000000     0.710200000000     0.0998592  
H190     H      0.320570000000     0.030860000000     0.000920000000     0.0383242  
H191     H      0.331600000000     0.618660000000     0.005560000000     0.0393272  
H192     H      0.413300000000     0.038560000000     0.498570000000     0.0185974  
H193     H      0.482170000000     0.630610000000     0.498420000000     0.0456006  
H194     H      0.295970000000     0.043760000000     0.951510000000     0.0397475  
H195     H      0.363160000000     0.636470000000     0.952990000000     0.039223   
H196     H      0.458330000000     0.643430000000     0.447980000000     0.0454934  
H197     H      0.448900000000     0.013810000000     0.441920000000     0.0924979  
H198     H      0.458560000000     0.066010000000     0.407700000000     0.0854778  
H199     H      0.393290000000     0.903580000000     0.484420000000     0.038636   
H200     H      0.466400000000     0.889370000000     0.493320000000     0.0389211  
H201     H      0.304120000000     0.805130000000     0.484070000000     0.0205938  
H202     H      0.328080000000     0.736490000000     0.987020000000     0.0482602  
H203     H      0.429920000000     0.922250000000     0.434370000000     0.0362557  
H204     H      0.452900000000     0.854530000000     0.942160000000     0.0382137  
H205     H      0.366360000000     0.760680000000     0.937580000000     0.0479492  
H206     H      0.245850000000     0.765950000000     0.927430000000     0.0926212  
H207     H      0.290780000000     0.761970000000     0.892860000000     0.0854457  
H208     H      0.433300000000     0.941620000000     0.737920000000     0.0370384  
H209     H      0.451380000000     0.867840000000     0.731390000000     0.041979   
H210     H      0.337380000000     0.788780000000     0.753080000000     0.0211007  
H211     H      0.324180000000     0.761710000000     0.676680000000     0.050416   
H212     H      0.393480000000     0.920270000000     0.689320000000     0.0392913  
H213     H      0.469310000000     0.906570000000     0.682030000000     0.0358685  
H214     H      0.328680000000     0.822370000000     0.658920000000     0.0486976  
H215     H      0.256030000000     0.778750000000     0.760930000000     0.0892678  
H216     H      0.264540000000     0.822810000000     0.719070000000     0.0975107  
H217     H      0.093460000000     0.396640000000     0.993160000000     0.0348372  
H218     H      0.683760000000     0.411550000000     0.488880000000     0.040809   
H219     H      0.648360000000     0.301560000000     0.010920000000     0.0208382  
H220     H      0.662980000000     0.285780000000     0.934860000000     0.046659   
H221     H      0.075430000000     0.356910000000     0.444210000000     0.0391631  
H222     H      0.165980000000     0.433220000000     0.439930000000     0.0336951  
H223     H      0.606590000000     0.287900000000     0.416070000000     0.0481061  
H224     H      0.077680000000     0.218820000000     0.020790000000     0.0921351  
H225     H      0.043240000000     0.223900000000     0.976600000000     0.0984124  
H226     H      0.670820000000     0.294660000000     0.243790000000     0.0326298  
H227     H      0.081120000000     0.281680000000     0.241930000000     0.0387697  
H228     H      0.119150000000     0.392230000000     0.262200000000     0.0204046  
H229     H      0.099730000000     0.404470000000     0.186810000000     0.0490492  
H230     H      0.687410000000     0.333070000000     0.194100000000     0.0366641  
H231     H      0.596530000000     0.257040000000     0.193450000000     0.03332    
H232     H      0.155370000000     0.402720000000     0.165800000000     0.0491495  
H233     H      0.690410000000     0.474640000000     0.269140000000     0.0918493  
H234     H      0.723450000000     0.467600000000     0.224980000000     0.096668   
H235     H      0.825000000000     0.571680000000     0.181160000000     0.0353417  
H236     H      0.791960000000     0.564160000000     0.254380000000     0.0354763  
H237     H      0.921470000000     0.574920000000     0.190430000000     0.0203853  
H238     H      0.943590000000     0.579620000000     0.268000000000     0.0495639  
H239     H      0.827180000000     0.132580000000     0.193540000000     0.0378399  
H240     H      0.844930000000     0.127750000000     0.269710000000     0.0356293  
H241     H      0.938660000000     0.138110000000     0.275640000000     0.0464881  
H242     H      0.002930000000     0.143800000000     0.172000000000     0.0913247  
H243     H      0.000670000000     0.187350000000     0.210200000000     0.100974   
H244     H      0.820560000000     0.530860000000     0.500910000000     0.0383261  
H245     H      0.831600000000     0.118660000000     0.505560000000     0.0393349  
H246     H      0.913300000000     0.538560000000     0.998570000000     0.0185423  
H247     H      0.982170000000     0.130610000000     0.998420000000     0.0452745  
H248     H      0.795970000000     0.543760000000     0.451510000000     0.0397002  
H249     H      0.863150000000     0.136470000000     0.452990000000     0.0391558  
H250     H      0.958330000000     0.143420000000     0.947980000000     0.0452252  
H251     H      0.948900000000     0.513810000000     0.941920000000     0.092352   
H252     H      0.958560000000     0.566010000000     0.907700000000     0.0852973  
H253     H      0.893290000000     0.403580000000     0.984420000000     0.0386271  
H254     H      0.966400000000     0.389370000000     0.993320000000     0.0386778  
H255     H      0.804110000000     0.305130000000     0.984070000000     0.0206039  
H256     H      0.828080000000     0.236490000000     0.487020000000     0.0482149  
H257     H      0.929920000000     0.422250000000     0.934370000000     0.0361648  
H258     H      0.952900000000     0.354530000000     0.442160000000     0.0379605  
H259     H      0.866360000000     0.260680000000     0.437580000000     0.0478613  
H260     H      0.745850000000     0.265960000000     0.427420000000     0.092542   
H261     H      0.790780000000     0.261970000000     0.392860000000     0.0853874  
H262     H      0.933300000000     0.441620000000     0.237920000000     0.0369036  
H263     H      0.951380000000     0.367840000000     0.231390000000     0.0417537  
H264     H      0.837380000000     0.288780000000     0.253080000000     0.0210466  
H265     H      0.824180000000     0.261710000000     0.176680000000     0.0503789  
H266     H      0.893480000000     0.420260000000     0.189320000000     0.0392456  
H267     H      0.969310000000     0.406570000000     0.182030000000     0.0356369  
H268     H      0.828680000000     0.322370000000     0.158920000000     0.0486781  
H269     H      0.756030000000     0.278750000000     0.260930000000     0.0891895  
H270     H      0.764540000000     0.322810000000     0.219070000000     0.0975474  
H271     H      0.093460000000     0.396640000000     0.493160000000     0.0348272  
H272     H      0.683760000000     0.411550000000     0.988880000000     0.0408223  
H273     H      0.648360000000     0.301560000000     0.510910000000     0.0208677  
H274     H      0.662980000000     0.285780000000     0.434860000000     0.0466478  
H275     H      0.075430000000     0.356910000000     0.944210000000     0.0391636  
H276     H      0.165980000000     0.433220000000     0.939930000000     0.0336988  
H277     H      0.606590000000     0.287900000000     0.916070000000     0.0481087  
H278     H      0.077680000000     0.218820000000     0.520790000000     0.0921618  
H279     H      0.043240000000     0.223900000000     0.476600000000     0.0984069  
H280     H      0.670820000000     0.294660000000     0.743790000000     0.0326334  
H281     H      0.081120000000     0.281680000000     0.741930000000     0.0387683  
H282     H      0.119150000000     0.392230000000     0.762200000000     0.0204037  
H283     H      0.099730000000     0.404470000000     0.686810000000     0.0490507  
H284     H      0.687410000000     0.333070000000     0.694110000000     0.0366741  
H285     H      0.596530000000     0.257040000000     0.693450000000     0.0333196  
H286     H      0.155370000000     0.402720000000     0.665800000000     0.0491524  
H287     H      0.690410000000     0.474640000000     0.769140000000     0.0918485  
H288     H      0.723450000000     0.467600000000     0.724980000000     0.0966677  
H289     H      0.825000000000     0.571680000000     0.681160000000     0.0353421  
H290     H      0.791960000000     0.564160000000     0.754390000000     0.035477   
H291     H      0.921470000000     0.574920000000     0.690430000000     0.0203874  
H292     H      0.943590000000     0.579620000000     0.768010000000     0.0495563  
H293     H      0.827180000000     0.132580000000     0.693540000000     0.0378392  
H294     H      0.844930000000     0.127750000000     0.769710000000     0.0356278  
H295     H      0.938660000000     0.138110000000     0.775650000000     0.0464748  
H296     H      0.002930000000     0.143800000000     0.672000000000     0.0913314  
H297     H      0.000670000000     0.187350000000     0.710200000000     0.100979   
H298     H      0.820560000000     0.530860000000     0.000920000000     0.0382833  
H299     H      0.831600000000     0.118660000000     0.005560000000     0.0392985  
H300     H      0.913300000000     0.538560000000     0.498570000000     0.0185305  
H301     H      0.982170000000     0.130610000000     0.498420000000     0.0452678  
H302     H      0.795970000000     0.543760000000     0.951510000000     0.0396966  
H303     H      0.863150000000     0.136470000000     0.952990000000     0.039149   
H304     H      0.958330000000     0.143420000000     0.447980000000     0.0452285  
H305     H      0.948900000000     0.513810000000     0.441920000000     0.0923495  
H306     H      0.958560000000     0.566010000000     0.407700000000     0.0852968  
H307     H      0.893290000000     0.403580000000     0.484420000000     0.0386097  
H308     H      0.966400000000     0.389370000000     0.493320000000     0.0386703  
H309     H      0.804110000000     0.305130000000     0.484070000000     0.0205972  
H310     H      0.828080000000     0.236490000000     0.987020000000     0.0482257  
H311     H      0.929920000000     0.422250000000     0.434370000000     0.0361546  
H312     H      0.952900000000     0.354530000000     0.942160000000     0.0379601  
H313     H      0.866360000000     0.260680000000     0.937580000000     0.0478638  
H314     H      0.745850000000     0.265960000000     0.927430000000     0.092544   
H315     H      0.790780000000     0.261970000000     0.892860000000     0.0853899  
H316     H      0.933300000000     0.441620000000     0.737920000000     0.036906   
H317     H      0.951380000000     0.367840000000     0.731390000000     0.0417532  
H318     H      0.837380000000     0.288780000000     0.753080000000     0.0210459  
H319     H      0.824180000000     0.261710000000     0.676680000000     0.05038    
H320     H      0.893480000000     0.420260000000     0.689320000000     0.0392499  
H321     H      0.969310000000     0.406570000000     0.682030000000     0.0356389  
H322     H      0.828680000000     0.322370000000     0.658920000000     0.0486802  
H323     H      0.756030000000     0.278750000000     0.760930000000     0.0892372  
H324     H      0.764540000000     0.322810000000     0.719070000000     0.0975349  
H325     H      0.093460000000     0.896640000000     0.993160000000     0.034827   
H326     H      0.683760000000     0.911550000000     0.488880000000     0.040796   
H327     H      0.648360000000     0.801560000000     0.010920000000     0.0208418  
H328     H      0.662980000000     0.785780000000     0.934860000000     0.0466193  
H329     H      0.075430000000     0.856920000000     0.444210000000     0.039154   
H330     H      0.165980000000     0.933220000000     0.439930000000     0.0336831  
H331     H      0.606580000000     0.787900000000     0.416070000000     0.0480718  
H332     H      0.077670000000     0.718820000000     0.020790000000     0.0921432  
H333     H      0.043240000000     0.723910000000     0.976600000000     0.0984019  
H334     H      0.670820000000     0.794660000000     0.243790000000     0.032624   
H335     H      0.081110000000     0.781680000000     0.241930000000     0.0387684  
H336     H      0.119150000000     0.892230000000     0.262200000000     0.0204029  
H337     H      0.099730000000     0.904470000000     0.186810000000     0.0490489  
H338     H      0.687410000000     0.833070000000     0.194100000000     0.0366585  
H339     H      0.596530000000     0.757040000000     0.193450000000     0.0333179  
H340     H      0.155370000000     0.902720000000     0.165800000000     0.04914    
H341     H      0.690410000000     0.974640000000     0.269140000000     0.0918373  
H342     H      0.723450000000     0.967600000000     0.224980000000     0.0966551  
H343     H      0.825000000000     0.071680000000     0.181160000000     0.0353502  
H344     H      0.791960000000     0.064160000000     0.254380000000     0.0355029  
H345     H      0.921470000000     0.074920000000     0.190430000000     0.0203834  
H346     H      0.943590000000     0.079620000000     0.268000000000     0.0495795  
H347     H      0.827190000000     0.632580000000     0.193540000000     0.037848   
H348     H      0.844930000000     0.627750000000     0.269710000000     0.0356219  
H349     H      0.938660000000     0.638110000000     0.275640000000     0.046479   
H350     H      0.002930000000     0.643800000000     0.172000000000     0.0913485  
H351     H      0.000670000000     0.687350000000     0.210200000000     0.100967   
H352     H      0.820570000000     0.030860000000     0.500910000000     0.0383246  
H353     H      0.831600000000     0.618660000000     0.505560000000     0.0393249  
H354     H      0.913300000000     0.038560000000     0.998570000000     0.0185647  
H355     H      0.982170000000     0.630610000000     0.998420000000     0.0452695  
H356     H      0.795970000000     0.043760000000     0.451510000000     0.0396919  
H357     H      0.863160000000     0.636470000000     0.452990000000     0.039155   
H358     H      0.958330000000     0.643430000000     0.947980000000     0.0452217  
H359     H      0.948900000000     0.013810000000     0.941920000000     0.0923968  
H360     H      0.958550000000     0.066010000000     0.907700000000     0.0853015  
H361     H      0.893290000000     0.903580000000     0.984420000000     0.038614   
H362     H      0.966400000000     0.889370000000     0.993320000000     0.0386726  
H363     H      0.804120000000     0.805130000000     0.984070000000     0.0205841  
H364     H      0.828080000000     0.736490000000     0.487020000000     0.048207   
H365     H      0.929920000000     0.922250000000     0.934370000000     0.0361486  
H366     H      0.952900000000     0.854530000000     0.442160000000     0.0379567  
H367     H      0.866360000000     0.760680000000     0.437580000000     0.0478559  
H368     H      0.745850000000     0.765950000000     0.427420000000     0.0925626  
H369     H      0.790780000000     0.761970000000     0.392860000000     0.0853905  
H370     H      0.933300000000     0.941620000000     0.237920000000     0.0368914  
H371     H      0.951380000000     0.867840000000     0.231390000000     0.0417668  
H372     H      0.837380000000     0.788780000000     0.253080000000     0.0210408  
H373     H      0.824180000000     0.761710000000     0.176680000000     0.0503708  
H374     H      0.893480000000     0.920270000000     0.189320000000     0.0392316  
H375     H      0.969300000000     0.906570000000     0.182030000000     0.0356508  
H376     H      0.828680000000     0.822370000000     0.158920000000     0.0486757  
H377     H      0.756030000000     0.778750000000     0.260930000000     0.0891672  
H378     H      0.764540000000     0.822810000000     0.219070000000     0.0975099  
H379     H      0.093460000000     0.896640000000     0.493160000000     0.0348169  
H380     H      0.683760000000     0.911550000000     0.988880000000     0.0408093  
H381     H      0.648360000000     0.801560000000     0.510910000000     0.0208713  
H382     H      0.662980000000     0.785780000000     0.434860000000     0.046608   
H383     H      0.075430000000     0.856920000000     0.944210000000     0.0391546  
H384     H      0.165980000000     0.933220000000     0.939930000000     0.0336868  
H385     H      0.606580000000     0.787900000000     0.916070000000     0.0480744  
H386     H      0.077670000000     0.718820000000     0.520790000000     0.0921698  
H387     H      0.043240000000     0.723910000000     0.476600000000     0.0983964  
H388     H      0.670820000000     0.794660000000     0.743790000000     0.0326276  
H389     H      0.081110000000     0.781680000000     0.741930000000     0.038767   
H390     H      0.119150000000     0.892230000000     0.762200000000     0.0204019  
H391     H      0.099730000000     0.904470000000     0.686810000000     0.0490504  
H392     H      0.687410000000     0.833070000000     0.694110000000     0.0366684  
H393     H      0.596530000000     0.757040000000     0.693450000000     0.0333174  
H394     H      0.155370000000     0.902720000000     0.665800000000     0.0491428  
H395     H      0.690410000000     0.974640000000     0.769140000000     0.0918365  
H396     H      0.723450000000     0.967600000000     0.724980000000     0.0966548  
H397     H      0.825000000000     0.071680000000     0.681160000000     0.0353505  
H398     H      0.791960000000     0.064160000000     0.754390000000     0.0355035  
H399     H      0.921470000000     0.074920000000     0.690430000000     0.0203855  
H400     H      0.943590000000     0.079620000000     0.768010000000     0.0495719  
H401     H      0.827190000000     0.632580000000     0.693540000000     0.0378473  
H402     H      0.844930000000     0.627750000000     0.769710000000     0.0356204  
H403     H      0.938660000000     0.638110000000     0.775650000000     0.0464657  
H404     H      0.002930000000     0.643800000000     0.672000000000     0.0913552  
H405     H      0.000670000000     0.687350000000     0.710200000000     0.100971   
H406     H      0.820570000000     0.030860000000     0.000920000000     0.0382818  
H407     H      0.831600000000     0.618660000000     0.005560000000     0.0392885  
H408     H      0.913300000000     0.038560000000     0.498570000000     0.018553   
H409     H      0.982170000000     0.630610000000     0.498420000000     0.0452627  
H410     H      0.795970000000     0.043760000000     0.951510000000     0.0396883  
H411     H      0.863160000000     0.636470000000     0.952990000000     0.0391482  
H412     H      0.958330000000     0.643430000000     0.447980000000     0.0452251  
H413     H      0.948900000000     0.013810000000     0.441920000000     0.0923943  
H414     H      0.958550000000     0.066010000000     0.407700000000     0.085301   
H415     H      0.893290000000     0.903580000000     0.484420000000     0.0385966  
H416     H      0.966400000000     0.889370000000     0.493320000000     0.0386651  
H417     H      0.804120000000     0.805130000000     0.484070000000     0.0205774  
H418     H      0.828080000000     0.736490000000     0.987020000000     0.0482178  
H419     H      0.929920000000     0.922250000000     0.434370000000     0.0361384  
H420     H      0.952900000000     0.854530000000     0.942160000000     0.0379563  
H421     H      0.866360000000     0.760680000000     0.937580000000     0.0478584  
H422     H      0.745850000000     0.765950000000     0.927430000000     0.0925647  
H423     H      0.790780000000     0.761970000000     0.892860000000     0.085393   
H424     H      0.933300000000     0.941620000000     0.737920000000     0.0368938  
H425     H      0.951380000000     0.867840000000     0.731390000000     0.0417663  
H426     H      0.837380000000     0.788780000000     0.753080000000     0.0210401  
H427     H      0.824180000000     0.761710000000     0.676680000000     0.0503719  
H428     H      0.893480000000     0.920270000000     0.689320000000     0.0392359  
H429     H      0.969300000000     0.906570000000     0.682030000000     0.0356527  
H430     H      0.828680000000     0.822370000000     0.658920000000     0.0486778  
H431     H      0.756030000000     0.778750000000     0.760930000000     0.0892148  
H432     H      0.764540000000     0.822810000000     0.719070000000     0.0974975  
N1       N      0.589210000000     0.321090000000     0.999210000000    -0.201473   
N2       N      0.169930000000     0.362180000000     0.433710000000    -0.18753    
N3       N      0.579940000000     0.233740000000     0.989140000000    -0.199653   
N4       N      0.176820000000     0.371100000000     0.249190000000    -0.200398   
N5       N      0.593350000000     0.328370000000     0.185220000000    -0.185243   
N6       N      0.187050000000     0.458600000000     0.237780000000    -0.199375   
N7       N      0.401530000000     0.135480000000     0.190380000000    -0.198306   
N8       N      0.366250000000     0.569010000000     0.265300000000    -0.185796   
N9       N      0.489580000000     0.148190000000     0.202670000000    -0.200329   
N10      N      0.368950000000     0.543700000000     0.445840000000    -0.200089   
N11      N      0.409960000000     0.131200000000     0.002820000000    -0.186042   
N12      N      0.456620000000     0.552800000000     0.940010000000    -0.198973   
N13      N      0.354990000000     0.350380000000     0.432230000000    -0.197779   
N14      N      0.399820000000     0.310540000000     0.992460000000    -0.184149   
N15      N      0.278410000000     0.260920000000     0.425280000000    -0.198997   
N16      N      0.359470000000     0.369320000000     0.243860000000    -0.200324   
N17      N      0.400780000000     0.330140000000     0.177700000000    -0.185234   
N18      N      0.272620000000     0.293760000000     0.230170000000    -0.199426   
N19      N      0.589210000000     0.321090000000     0.499210000000    -0.201488   
N20      N      0.169930000000     0.362180000000     0.933710000000    -0.187491   
N21      N      0.579940000000     0.233740000000     0.489140000000    -0.19967    
N22      N      0.176820000000     0.371100000000     0.749190000000    -0.200409   
N23      N      0.593350000000     0.328370000000     0.685220000000    -0.185242   
N24      N      0.187050000000     0.458600000000     0.737780000000    -0.199375   
N25      N      0.401530000000     0.135480000000     0.690380000000    -0.198324   
N26      N      0.366250000000     0.569010000000     0.765300000000    -0.185799   
N27      N      0.489580000000     0.148190000000     0.702670000000    -0.200327   
N28      N      0.368950000000     0.543700000000     0.945840000000    -0.200091   
N29      N      0.409960000000     0.131200000000     0.502820000000    -0.186004   
N30      N      0.456620000000     0.552800000000     0.440010000000    -0.198974   
N31      N      0.354990000000     0.350380000000     0.932230000000    -0.197773   
N32      N      0.399820000000     0.310540000000     0.492460000000    -0.184168   
N33      N      0.278410000000     0.260920000000     0.925280000000    -0.198995   
N34      N      0.359470000000     0.369320000000     0.743860000000    -0.200317   
N35      N      0.400780000000     0.330140000000     0.677700000000    -0.185233   
N36      N      0.272620000000     0.293760000000     0.730180000000    -0.199451   
N37      N      0.589210000000     0.821090000000     0.999210000000    -0.201471   
N38      N      0.169930000000     0.862180000000     0.433710000000    -0.187547   
N39      N      0.579940000000     0.733740000000     0.989140000000    -0.199682   
N40      N      0.176820000000     0.871100000000     0.249190000000    -0.200396   
N41      N      0.593350000000     0.828370000000     0.185220000000    -0.185245   
N42      N      0.187050000000     0.958600000000     0.237780000000    -0.199378   
N43      N      0.401530000000     0.635480000000     0.190380000000    -0.198306   
N44      N      0.366250000000     0.069010000000     0.265300000000    -0.185757   
N45      N      0.489580000000     0.648190000000     0.202670000000    -0.200331   
N46      N      0.368950000000     0.043700000000     0.445840000000    -0.200096   
N47      N      0.409960000000     0.631200000000     0.002820000000    -0.186045   
N48      N      0.456620000000     0.052800000000     0.940010000000    -0.198979   
N49      N      0.354990000000     0.850380000000     0.432230000000    -0.197754   
N50      N      0.399820000000     0.810540000000     0.992460000000    -0.184154   
N51      N      0.278410000000     0.760920000000     0.425280000000    -0.199021   
N52      N      0.359470000000     0.869320000000     0.243860000000    -0.200332   
N53      N      0.400780000000     0.830140000000     0.177700000000    -0.185235   
N54      N      0.272630000000     0.793760000000     0.230170000000    -0.19939    
N55      N      0.589210000000     0.821090000000     0.499210000000    -0.201487   
N56      N      0.169930000000     0.862180000000     0.933710000000    -0.187508   
N57      N      0.579940000000     0.733740000000     0.489140000000    -0.199698   
N58      N      0.176820000000     0.871100000000     0.749190000000    -0.200407   
N59      N      0.593350000000     0.828370000000     0.685220000000    -0.185244   
N60      N      0.187050000000     0.958600000000     0.737780000000    -0.199378   
N61      N      0.401530000000     0.635480000000     0.690380000000    -0.198324   
N62      N      0.366250000000     0.069010000000     0.765300000000    -0.18576    
N63      N      0.489580000000     0.648190000000     0.702670000000    -0.200329   
N64      N      0.368950000000     0.043700000000     0.945840000000    -0.200097   
N65      N      0.409960000000     0.631200000000     0.502820000000    -0.186007   
N66      N      0.456620000000     0.052800000000     0.440010000000    -0.19898    
N67      N      0.354990000000     0.850380000000     0.932230000000    -0.197748   
N68      N      0.399820000000     0.810540000000     0.492460000000    -0.184174   
N69      N      0.278410000000     0.760920000000     0.925280000000    -0.199019   
N70      N      0.359470000000     0.869320000000     0.743860000000    -0.200325   
N71      N      0.400780000000     0.830140000000     0.677700000000    -0.185233   
N72      N      0.272630000000     0.793760000000     0.730180000000    -0.199415   
N73      N      0.089210000000     0.321090000000     0.999210000000    -0.201337   
N74      N      0.669930000000     0.362180000000     0.433710000000    -0.187546   
N75      N      0.079940000000     0.233740000000     0.989140000000    -0.19968    
N76      N      0.676810000000     0.371100000000     0.249190000000    -0.200375   
N77      N      0.093350000000     0.328370000000     0.185220000000    -0.185095   
N78      N      0.687050000000     0.458600000000     0.237780000000    -0.199416   
N79      N      0.901530000000     0.135480000000     0.190380000000    -0.198369   
N80      N      0.866250000000     0.569010000000     0.265300000000    -0.185815   
N81      N      0.989580000000     0.148190000000     0.202670000000    -0.201846   
N82      N      0.868950000000     0.543700000000     0.445840000000    -0.200087   
N83      N      0.909960000000     0.131200000000     0.002820000000    -0.186088   
N84      N      0.956620000000     0.552800000000     0.940010000000    -0.199051   
N85      N      0.854990000000     0.350380000000     0.432230000000    -0.197752   
N86      N      0.899820000000     0.310540000000     0.992460000000    -0.184175   
N87      N      0.778410000000     0.260920000000     0.425280000000    -0.199011   
N88      N      0.859460000000     0.369320000000     0.243860000000    -0.200367   
N89      N      0.900780000000     0.330140000000     0.177700000000    -0.185265   
N90      N      0.772620000000     0.293760000000     0.230170000000    -0.19944    
N91      N      0.089210000000     0.321090000000     0.499210000000    -0.201352   
N92      N      0.669930000000     0.362180000000     0.933710000000    -0.187507   
N93      N      0.079940000000     0.233740000000     0.489140000000    -0.199696   
N94      N      0.676810000000     0.371100000000     0.749190000000    -0.200385   
N95      N      0.093350000000     0.328370000000     0.685220000000    -0.185094   
N96      N      0.687050000000     0.458600000000     0.737780000000    -0.199416   
N97      N      0.901530000000     0.135480000000     0.690380000000    -0.198387   
N98      N      0.866250000000     0.569010000000     0.765300000000    -0.185819   
N99      N      0.989580000000     0.148190000000     0.702670000000    -0.201844   
N100     N      0.868950000000     0.543700000000     0.945840000000    -0.200088   
N101     N      0.909960000000     0.131200000000     0.502820000000    -0.186051   
N102     N      0.956620000000     0.552800000000     0.440010000000    -0.199053   
N103     N      0.854990000000     0.350380000000     0.932230000000    -0.197746   
N104     N      0.899820000000     0.310540000000     0.492460000000    -0.184195   
N105     N      0.778410000000     0.260920000000     0.925280000000    -0.199009   
N106     N      0.859460000000     0.369320000000     0.743860000000    -0.20036    
N107     N      0.900780000000     0.330140000000     0.677700000000    -0.185264   
N108     N      0.772620000000     0.293760000000     0.730180000000    -0.199466   
N109     N      0.089210000000     0.821090000000     0.999210000000    -0.201335   
N110     N      0.669930000000     0.862180000000     0.433710000000    -0.187567   
N111     N      0.079940000000     0.733740000000     0.989140000000    -0.199673   
N112     N      0.676820000000     0.871100000000     0.249190000000    -0.200405   
N113     N      0.093350000000     0.828370000000     0.185220000000    -0.185095   
N114     N      0.687050000000     0.958600000000     0.237780000000    -0.199413   
N115     N      0.901530000000     0.635480000000     0.190380000000    -0.198363   
N116     N      0.866250000000     0.069010000000     0.265300000000    -0.185774   
N117     N      0.989590000000     0.648190000000     0.202670000000    -0.201852   
N118     N      0.868950000000     0.043700000000     0.445840000000    -0.200104   
N119     N      0.909960000000     0.631200000000     0.002820000000    -0.186094   
N120     N      0.956630000000     0.052800000000     0.940010000000    -0.199043   
N121     N      0.854990000000     0.850380000000     0.432230000000    -0.197801   
N122     N      0.899820000000     0.810540000000     0.992460000000    -0.184155   
N123     N      0.778410000000     0.760920000000     0.425280000000    -0.199037   
N124     N      0.859470000000     0.869320000000     0.243860000000    -0.200344   
N125     N      0.900780000000     0.830140000000     0.177700000000    -0.18529    
N126     N      0.772630000000     0.793760000000     0.230170000000    -0.199404   
N127     N      0.089210000000     0.821090000000     0.499210000000    -0.20135    
N128     N      0.669930000000     0.862180000000     0.933710000000    -0.187528   
N129     N      0.079940000000     0.733740000000     0.489140000000    -0.199689   
N130     N      0.676820000000     0.871100000000     0.749190000000    -0.200416   
N131     N      0.093350000000     0.828370000000     0.685220000000    -0.185095   
N132     N      0.687050000000     0.958600000000     0.737780000000    -0.199413   
N133     N      0.901530000000     0.635480000000     0.690380000000    -0.198381   
N134     N      0.866250000000     0.069010000000     0.765300000000    -0.185778   
N135     N      0.989590000000     0.648190000000     0.702670000000    -0.201849   
N136     N      0.868950000000     0.043700000000     0.945840000000    -0.200106   
N137     N      0.909960000000     0.631200000000     0.502820000000    -0.186056   
N138     N      0.956630000000     0.052800000000     0.440010000000    -0.199045   
N139     N      0.854990000000     0.850380000000     0.932230000000    -0.197795   
N140     N      0.899820000000     0.810540000000     0.492460000000    -0.184175   
N141     N      0.778410000000     0.760920000000     0.925280000000    -0.199035   
N142     N      0.859470000000     0.869320000000     0.743860000000    -0.200337   
N143     N      0.900780000000     0.830140000000     0.677700000000    -0.185289   
N144     N      0.772630000000     0.793760000000     0.730180000000    -0.19943    
O1       O      0.209020000000     0.351810000000     0.372960000000    -0.506153   
O2       O      0.366490000000     0.434860000000     0.289320000000    -0.504795   
O3       O      0.238290000000     0.430680000000     0.399150000000    -0.510705   
O4       O      0.213610000000     0.417910000000     0.312520000000    -0.498107   
O5       O      0.290290000000     0.353310000000     0.393290000000    -0.506552   
O6       O      0.376510000000     0.518540000000     0.317240000000    -0.504582   
O7       O      0.300060000000     0.427080000000     0.344550000000    -0.867003   
O8       O      0.369030000000     0.482570000000     0.399400000000    -0.513476   
O9       O      0.317760000000     0.513780000000     0.384440000000    -0.500324   
O10      O      0.238540000000     0.363960000000     0.288530000000    -0.512009   
O11      O      0.297940000000     0.497150000000     0.297390000000    -0.511011   
O12      O      0.370590000000     0.404680000000     0.373030000000    -0.496907   
O13      O      0.313510000000     0.353580000000     0.307810000000    -0.505935   
O14      O      0.447820000000     0.329880000000     0.055710000000    -0.497592   
O15      O      0.527740000000     0.258550000000     0.148790000000    -0.510232   
O16      O      0.396630000000     0.247480000000     0.038500000000    -0.506076   
O17      O      0.390020000000     0.273950000000     0.121620000000    -0.50342    
O18      O      0.526150000000     0.325730000000     0.038540000000    -0.509583   
O19      O      0.452470000000     0.172380000000     0.129690000000    -0.506306   
O20      O      0.465350000000     0.259350000000     0.093340000000    -0.867166   
O21      O      0.474560000000     0.195500000000     0.044310000000    -0.513178   
O22      O      0.394080000000     0.166840000000     0.063540000000    -0.502438   
O23      O      0.468950000000     0.330360000000     0.142400000000    -0.503873   
O24      O      0.397550000000     0.197880000000     0.147590000000    -0.501871   
O25      O      0.555720000000     0.276250000000     0.063530000000    -0.506502   
O26      O      0.553260000000     0.337540000000     0.124260000000    -0.496915   
O27      O      0.209020000000     0.351810000000     0.872960000000    -0.506263   
O28      O      0.366490000000     0.434860000000     0.789310000000    -0.504699   
O29      O      0.238290000000     0.430680000000     0.899150000000    -0.510739   
O30      O      0.213610000000     0.417910000000     0.812520000000    -0.498117   
O31      O      0.290290000000     0.353310000000     0.893290000000    -0.506568   
O32      O      0.376510000000     0.518540000000     0.817240000000    -0.50457    
O33      O      0.300060000000     0.427080000000     0.844550000000    -0.867007   
O34      O      0.369030000000     0.482570000000     0.899400000000    -0.513452   
O35      O      0.317760000000     0.513780000000     0.884440000000    -0.500319   
O36      O      0.238540000000     0.363960000000     0.788540000000    -0.512121   
O37      O      0.297940000000     0.497150000000     0.797390000000    -0.51101    
O38      O      0.370590000000     0.404680000000     0.873030000000    -0.496903   
O39      O      0.313510000000     0.353580000000     0.807810000000    -0.505955   
O40      O      0.447820000000     0.329880000000     0.555710000000    -0.49759    
O41      O      0.527740000000     0.258550000000     0.648790000000    -0.510219   
O42      O      0.396630000000     0.247480000000     0.538500000000    -0.506074   
O43      O      0.390020000000     0.273950000000     0.621620000000    -0.503417   
O44      O      0.526150000000     0.325730000000     0.538540000000    -0.509577   
O45      O      0.452470000000     0.172380000000     0.629700000000    -0.506337   
O46      O      0.465350000000     0.259350000000     0.593340000000    -0.867162   
O47      O      0.474560000000     0.195500000000     0.544310000000    -0.513167   
O48      O      0.394080000000     0.166840000000     0.563540000000    -0.502442   
O49      O      0.468950000000     0.330360000000     0.642400000000    -0.503873   
O50      O      0.397550000000     0.197880000000     0.647590000000    -0.501911   
O51      O      0.555720000000     0.276250000000     0.563530000000    -0.506495   
O52      O      0.553260000000     0.337540000000     0.624260000000    -0.496911   
O53      O      0.209010000000     0.851810000000     0.372960000000    -0.506105   
O54      O      0.366490000000     0.934860000000     0.289320000000    -0.5047     
O55      O      0.238290000000     0.930680000000     0.399150000000    -0.510732   
O56      O      0.213610000000     0.917910000000     0.312520000000    -0.498098   
O57      O      0.290280000000     0.853310000000     0.393290000000    -0.506459   
O58      O      0.376510000000     0.018530000000     0.317240000000    -0.50466    
O59      O      0.300060000000     0.927080000000     0.344550000000    -0.866998   
O60      O      0.369030000000     0.982570000000     0.399400000000    -0.51355    
O61      O      0.317760000000     0.013780000000     0.384440000000    -0.500302   
O62      O      0.238540000000     0.863960000000     0.288530000000    -0.511995   
O63      O      0.297940000000     0.997150000000     0.297390000000    -0.511087   
O64      O      0.370590000000     0.904680000000     0.373030000000    -0.496864   
O65      O      0.313510000000     0.853580000000     0.307810000000    -0.505946   
O66      O      0.447820000000     0.829880000000     0.055710000000    -0.497605   
O67      O      0.527740000000     0.758550000000     0.148790000000    -0.510233   
O68      O      0.396620000000     0.747480000000     0.038500000000    -0.506075   
O69      O      0.390020000000     0.773950000000     0.121620000000    -0.503412   
O70      O      0.526150000000     0.825730000000     0.038540000000    -0.509589   
O71      O      0.452470000000     0.672380000000     0.129690000000    -0.506307   
O72      O      0.465350000000     0.759350000000     0.093340000000    -0.86717    
O73      O      0.474560000000     0.695500000000     0.044310000000    -0.513183   
O74      O      0.394080000000     0.666840000000     0.063540000000    -0.502441   
O75      O      0.468950000000     0.830360000000     0.142400000000    -0.503873   
O76      O      0.397550000000     0.697880000000     0.147590000000    -0.501867   
O77      O      0.555720000000     0.776250000000     0.063530000000    -0.506503   
O78      O      0.553260000000     0.837540000000     0.124260000000    -0.496917   
O79      O      0.209010000000     0.851810000000     0.872960000000    -0.506215   
O80      O      0.366490000000     0.934860000000     0.789310000000    -0.504603   
O81      O      0.238290000000     0.930680000000     0.899150000000    -0.510766   
O82      O      0.213610000000     0.917910000000     0.812520000000    -0.498108   
O83      O      0.290280000000     0.853310000000     0.893290000000    -0.506475   
O84      O      0.376510000000     0.018530000000     0.817240000000    -0.504649   
O85      O      0.300060000000     0.927080000000     0.844550000000    -0.867002   
O86      O      0.369030000000     0.982570000000     0.899400000000    -0.513526   
O87      O      0.317760000000     0.013780000000     0.884440000000    -0.500297   
O88      O      0.238540000000     0.863960000000     0.788540000000    -0.512106   
O89      O      0.297940000000     0.997150000000     0.797390000000    -0.511086   
O90      O      0.370590000000     0.904680000000     0.873030000000    -0.496859   
O91      O      0.313510000000     0.853580000000     0.807810000000    -0.505966   
O92      O      0.447820000000     0.829880000000     0.555710000000    -0.497604   
O93      O      0.527740000000     0.758550000000     0.648790000000    -0.510219   
O94      O      0.396620000000     0.747480000000     0.538500000000    -0.506073   
O95      O      0.390020000000     0.773950000000     0.621620000000    -0.503409   
O96      O      0.526150000000     0.825730000000     0.538540000000    -0.509583   
O97      O      0.452470000000     0.672380000000     0.629700000000    -0.506338   
O98      O      0.465350000000     0.759350000000     0.593340000000    -0.867166   
O99      O      0.474560000000     0.695500000000     0.544310000000    -0.513171   
O100     O      0.394080000000     0.666840000000     0.563540000000    -0.502445   
O101     O      0.468950000000     0.830360000000     0.642400000000    -0.503873   
O102     O      0.397550000000     0.697880000000     0.647590000000    -0.501907   
O103     O      0.555720000000     0.776250000000     0.563530000000    -0.506497   
O104     O      0.553260000000     0.837540000000     0.624260000000    -0.496914   
O105     O      0.709020000000     0.351810000000     0.372960000000    -0.506192   
O106     O      0.866490000000     0.434860000000     0.289320000000    -0.504842   
O107     O      0.738290000000     0.430680000000     0.399150000000    -0.510715   
O108     O      0.713610000000     0.417910000000     0.312520000000    -0.498128   
O109     O      0.790280000000     0.353310000000     0.393290000000    -0.506453   
O110     O      0.876510000000     0.518540000000     0.317240000000    -0.504631   
O111     O      0.800060000000     0.427080000000     0.344550000000    -0.866963   
O112     O      0.869030000000     0.482570000000     0.399400000000    -0.513477   
O113     O      0.817760000000     0.513780000000     0.384440000000    -0.500343   
O114     O      0.738540000000     0.363960000000     0.288530000000    -0.512006   
O115     O      0.797940000000     0.497150000000     0.297390000000    -0.511014   
O116     O      0.870590000000     0.404680000000     0.373030000000    -0.496909   
O117     O      0.813510000000     0.353580000000     0.307810000000    -0.505971   
O118     O      0.947820000000     0.329880000000     0.055710000000    -0.497519   
O119     O      0.027740000000     0.258550000000     0.148790000000    -0.509104   
O120     O      0.896620000000     0.247480000000     0.038500000000    -0.506074   
O121     O      0.890020000000     0.273950000000     0.121620000000    -0.503369   
O122     O      0.026150000000     0.325730000000     0.038540000000    -0.508333   
O123     O      0.952470000000     0.172380000000     0.129690000000    -0.50627    
O124     O      0.965350000000     0.259350000000     0.093340000000    -0.866782   
O125     O      0.974560000000     0.195500000000     0.044310000000    -0.513328   
O126     O      0.894080000000     0.166840000000     0.063540000000    -0.502399   
O127     O      0.968950000000     0.330360000000     0.142400000000    -0.503955   
O128     O      0.897550000000     0.197880000000     0.147590000000    -0.501949   
O129     O      0.055720000000     0.276250000000     0.063530000000    -0.50556    
O130     O      0.053260000000     0.337540000000     0.124260000000    -0.495925   
O131     O      0.709020000000     0.351810000000     0.872960000000    -0.506302   
O132     O      0.866490000000     0.434860000000     0.789310000000    -0.504746   
O133     O      0.738290000000     0.430680000000     0.899150000000    -0.510749   
O134     O      0.713610000000     0.417910000000     0.812520000000    -0.498138   
O135     O      0.790280000000     0.353310000000     0.893290000000    -0.506469   
O136     O      0.876510000000     0.518540000000     0.817240000000    -0.504619   
O137     O      0.800060000000     0.427080000000     0.844550000000    -0.866967   
O138     O      0.869030000000     0.482570000000     0.899400000000    -0.513453   
O139     O      0.817760000000     0.513780000000     0.884440000000    -0.500339   
O140     O      0.738540000000     0.363960000000     0.788540000000    -0.512118   
O141     O      0.797940000000     0.497150000000     0.797390000000    -0.511013   
O142     O      0.870590000000     0.404680000000     0.873030000000    -0.496904   
O143     O      0.813510000000     0.353580000000     0.807810000000    -0.505991   
O144     O      0.947820000000     0.329880000000     0.555710000000    -0.497517   
O145     O      0.027740000000     0.258550000000     0.648790000000    -0.50909    
O146     O      0.896620000000     0.247480000000     0.538500000000    -0.506072   
O147     O      0.890020000000     0.273950000000     0.621620000000    -0.503367   
O148     O      0.026150000000     0.325730000000     0.538540000000    -0.508327   
O149     O      0.952470000000     0.172380000000     0.629700000000    -0.506301   
O150     O      0.965350000000     0.259350000000     0.593340000000    -0.866779   
O151     O      0.974560000000     0.195500000000     0.544310000000    -0.513317   
O152     O      0.894080000000     0.166840000000     0.563540000000    -0.502404   
O153     O      0.968950000000     0.330360000000     0.642400000000    -0.503955   
O154     O      0.897550000000     0.197880000000     0.647590000000    -0.501989   
O155     O      0.055720000000     0.276250000000     0.563530000000    -0.505553   
O156     O      0.053260000000     0.337540000000     0.624260000000    -0.495921   
O157     O      0.709010000000     0.851810000000     0.372960000000    -0.506155   
O158     O      0.866490000000     0.934860000000     0.289320000000    -0.504733   
O159     O      0.738290000000     0.930680000000     0.399150000000    -0.510746   
O160     O      0.713610000000     0.917910000000     0.312520000000    -0.498135   
O161     O      0.790290000000     0.853310000000     0.393290000000    -0.506561   
O162     O      0.876510000000     0.018530000000     0.317240000000    -0.504714   
O163     O      0.800060000000     0.927080000000     0.344550000000    -0.86696    
O164     O      0.869030000000     0.982570000000     0.399400000000    -0.513561   
O165     O      0.817760000000     0.013780000000     0.384440000000    -0.50032    
O166     O      0.738540000000     0.863960000000     0.288530000000    -0.511998   
O167     O      0.797940000000     0.997150000000     0.297390000000    -0.511091   
O168     O      0.870590000000     0.904680000000     0.373030000000    -0.496978   
O169     O      0.813510000000     0.853580000000     0.307810000000    -0.505955   
O170     O      0.947810000000     0.829880000000     0.055710000000    -0.49751    
O171     O      0.027740000000     0.758550000000     0.148790000000    -0.509105   
O172     O      0.896630000000     0.747480000000     0.038500000000    -0.506118   
O173     O      0.890020000000     0.773950000000     0.121620000000    -0.503426   
O174     O      0.026150000000     0.825730000000     0.038540000000    -0.508335   
O175     O      0.952470000000     0.672380000000     0.129690000000    -0.506354   
O176     O      0.965350000000     0.759350000000     0.093340000000    -0.86677    
O177     O      0.974560000000     0.695500000000     0.044310000000    -0.513331   
O178     O      0.894080000000     0.666840000000     0.063540000000    -0.502398   
O179     O      0.968940000000     0.830360000000     0.142400000000    -0.504035   
O180     O      0.897550000000     0.697880000000     0.147590000000    -0.501874   
O181     O      0.055720000000     0.776250000000     0.063530000000    -0.50556    
O182     O      0.053260000000     0.837540000000     0.124260000000    -0.495917   
O183     O      0.709010000000     0.851810000000     0.872960000000    -0.506265   
O184     O      0.866490000000     0.934860000000     0.789310000000    -0.504637   
O185     O      0.738290000000     0.930680000000     0.899150000000    -0.51078    
O186     O      0.713610000000     0.917910000000     0.812520000000    -0.498145   
O187     O      0.790290000000     0.853310000000     0.893290000000    -0.506577   
O188     O      0.876510000000     0.018530000000     0.817240000000    -0.504703   
O189     O      0.800060000000     0.927080000000     0.844550000000    -0.866963   
O190     O      0.869030000000     0.982570000000     0.899400000000    -0.513538   
O191     O      0.817760000000     0.013780000000     0.884440000000    -0.500315   
O192     O      0.738540000000     0.863960000000     0.788540000000    -0.512109   
O193     O      0.797940000000     0.997150000000     0.797390000000    -0.51109    
O194     O      0.870590000000     0.904680000000     0.873030000000    -0.496973   
O195     O      0.813510000000     0.853580000000     0.807810000000    -0.505975   
O196     O      0.947810000000     0.829880000000     0.555710000000    -0.497509   
O197     O      0.027740000000     0.758550000000     0.648790000000    -0.509091   
O198     O      0.896630000000     0.747480000000     0.538500000000    -0.506116   
O199     O      0.890020000000     0.773950000000     0.621620000000    -0.503424   
O200     O      0.026150000000     0.825730000000     0.538540000000    -0.508329   
O201     O      0.952470000000     0.672380000000     0.629700000000    -0.506385   
O202     O      0.965350000000     0.759350000000     0.593340000000    -0.866766   
O203     O      0.974560000000     0.695500000000     0.544310000000    -0.513319   
O204     O      0.894080000000     0.666840000000     0.563540000000    -0.502403   
O205     O      0.968940000000     0.830360000000     0.642400000000    -0.504035   
O206     O      0.897550000000     0.697880000000     0.647590000000    -0.501914   
O207     O      0.055720000000     0.776250000000     0.563530000000    -0.505554   
O208     O      0.053260000000     0.837540000000     0.624260000000    -0.495914   


