data_structure

_audit_creation_method RASPA-1.0
_audit_creation_date 2023-6-4
_audit_author_name 'Poobodin Mano'

_cell_length_a    30.9476
_cell_length_b    30.5606
_cell_length_c    28.4788
_cell_angle_alpha 90
_cell_angle_beta  90
_cell_angle_gamma 120
_cell_volume      23326

_symmetry_cell_setting          triclinic
_symmetry_space_group_name_Hall 'P 1'
_symmetry_space_group_name_H-M  'P 1'
_symmetry_Int_Tables_number     1

_symmetry_equiv_pos_as_xyz 'x,y,z'

loop_
_atom_site_label
_atom_site_type_symbol
_atom_site_fract_x
_atom_site_fract_y
_atom_site_fract_z
_atom_site_charge
C1       C      0.308650000000     0.362700000000     0.304680000000     0.534506   
C2       C      0.298860000000     0.349310000000     0.430050000000     0.534924   
C3       C      0.174140000000     0.357380000000     0.433220000000     0.523389   
C4       C      0.299860000000     0.489350000000     0.309010000000     0.521574   
C5       C      0.306960000000     0.486390000000     0.434500000000     0.529886   
C6       C      0.172070000000     0.354510000000     0.306380000000     0.526108   
C7       C      0.385680000000     0.287060000000     0.173410000000     0.5257     
C8       C      0.384100000000     0.272520000000     0.052110000000     0.528657   
C9       C      0.386920000000     0.144110000000     0.058420000000     0.527345   
C10      C      0.513200000000     0.272210000000     0.185220000000     0.530179   
C11      C      0.519250000000     0.280440000000     0.060810000000     0.530233   
C12      C      0.377270000000     0.147800000000     0.184210000000     0.518402   
C13      C      0.122280000000     0.287520000000     0.988170000000    -0.00607064 
C14      C      0.135090000000     0.374130000000     0.501190000000    -0.0122488  
C15      C      0.067190000000     0.264270000000     0.001900000000    -0.00869194 
C16      C      0.579210000000     0.352270000000     0.510230000000     0.0150676  
C17      C      0.573460000000     0.386930000000     0.542540000000     0.0509098  
C18      C      0.116200000000     0.368640000000     0.254040000000    -0.00624695 
C19      C      0.125930000000     0.292370000000     0.243950000000    -0.0125759  
C20      C      0.559900000000     0.335650000000     0.246030000000    -0.00760338 
C21      C      0.569090000000     0.258490000000     0.240250000000     0.0147905  
C22      C      0.558260000000     0.213340000000     0.212330000000     0.0522     
C23      C      0.368030000000     0.544550000000     0.254860000000    -0.00560782 
C24      C      0.283350000000     0.536260000000     0.247430000000    -0.0122073  
C25      C      0.392400000000     0.101360000000     0.246180000000    -0.00886523 
C26      C      0.307790000000     0.093810000000     0.240540000000     0.0138354  
C27      C      0.274210000000     0.103830000000     0.211360000000     0.0555084  
C28      C      0.319400000000     0.093160000000     0.002130000000    -0.00515877 
C29      C      0.402370000000     0.097450000000     0.496240000000    -0.0116831  
C30      C      0.292830000000     0.536220000000     0.993590000000    -0.00765079 
C31      C      0.376030000000     0.539820000000     0.491040000000     0.0144646  
C32      C      0.409070000000     0.527120000000     0.463980000000     0.0511386  
C33      C      0.364210000000     0.364220000000     0.487440000000    -0.00579545 
C34      C      0.284260000000     0.278600000000     0.981100000000    -0.0100126  
C35      C      0.391610000000     0.335160000000     0.494580000000    -0.00580621 
C36      C      0.306090000000     0.264160000000     0.023190000000     0.0120443  
C37      C      0.291340000000     0.277620000000     0.067910000000     0.057815   
C38      C      0.381420000000     0.381440000000     0.256580000000    -0.00606977 
C39      C      0.295720000000     0.304770000000     0.239520000000    -0.00747764 
C40      C      0.403170000000     0.351220000000     0.233220000000    -0.00964019 
C41      C      0.320150000000     0.311530000000     0.191180000000     0.00799644 
C42      C      0.285800000000     0.275010000000     0.154210000000     0.112448   
C43      C      0.308650000000     0.362700000000     0.804680000000     0.534498   
C44      C      0.298860000000     0.349310000000     0.930050000000     0.534916   
C45      C      0.174140000000     0.357380000000     0.933220000000     0.523347   
C46      C      0.299860000000     0.489350000000     0.809010000000     0.52156    
C47      C      0.306960000000     0.486390000000     0.934500000000     0.529838   
C48      C      0.172070000000     0.354510000000     0.806380000000     0.526101   
C49      C      0.385680000000     0.287060000000     0.673410000000     0.525704   
C50      C      0.384100000000     0.272520000000     0.552110000000     0.528691   
C51      C      0.386920000000     0.144110000000     0.558420000000     0.527349   
C52      C      0.513200000000     0.272210000000     0.685220000000     0.530172   
C53      C      0.519250000000     0.280440000000     0.560810000000     0.530338   
C54      C      0.377270000000     0.147800000000     0.684210000000     0.518408   
C55      C      0.122280000000     0.287520000000     0.488170000000    -0.00605008 
C56      C      0.135090000000     0.374130000000     0.001190000000    -0.0122078  
C57      C      0.067190000000     0.264270000000     0.501900000000    -0.0087051  
C58      C      0.579210000000     0.352270000000     0.010230000000     0.0150616  
C59      C      0.573460000000     0.386930000000     0.042540000000     0.0509157  
C60      C      0.116200000000     0.368640000000     0.754040000000    -0.00623833 
C61      C      0.125930000000     0.292370000000     0.743950000000    -0.0125754  
C62      C      0.559900000000     0.335650000000     0.746030000000    -0.0076287  
C63      C      0.569090000000     0.258490000000     0.740250000000     0.0147892  
C64      C      0.558260000000     0.213340000000     0.712330000000     0.0521977  
C65      C      0.368030000000     0.544550000000     0.754860000000    -0.00561238 
C66      C      0.283350000000     0.536260000000     0.747430000000    -0.0122199  
C67      C      0.392400000000     0.101360000000     0.746180000000    -0.00885677 
C68      C      0.307790000000     0.093810000000     0.740530000000     0.0138636  
C69      C      0.274210000000     0.103830000000     0.711360000000     0.0554961  
C70      C      0.319400000000     0.093160000000     0.502140000000    -0.0051519  
C71      C      0.402370000000     0.097450000000     0.996240000000    -0.0117191  
C72      C      0.292830000000     0.536220000000     0.493590000000    -0.00764055 
C73      C      0.376030000000     0.539820000000     0.991030000000     0.0145137  
C74      C      0.409070000000     0.527120000000     0.963990000000     0.0511001  
C75      C      0.364210000000     0.364220000000     0.987440000000    -0.00580213 
C76      C      0.284260000000     0.278600000000     0.481100000000    -0.0100043  
C77      C      0.391610000000     0.335160000000     0.994580000000    -0.00582175 
C78      C      0.306090000000     0.264160000000     0.523190000000     0.0120391  
C79      C      0.291340000000     0.277620000000     0.567910000000     0.057815   
C80      C      0.381420000000     0.381440000000     0.756590000000    -0.00606552 
C81      C      0.295720000000     0.304770000000     0.739520000000    -0.00745587 
C82      C      0.403170000000     0.351220000000     0.733220000000    -0.009643   
C83      C      0.320150000000     0.311530000000     0.691170000000     0.00795971 
C84      C      0.285800000000     0.275010000000     0.654210000000     0.11246    
C85      C      0.308650000000     0.862700000000     0.304680000000     0.53452    
C86      C      0.298860000000     0.849310000000     0.430050000000     0.534635   
C87      C      0.174140000000     0.857380000000     0.433220000000     0.523398   
C88      C      0.299860000000     0.989350000000     0.309010000000     0.52149    
C89      C      0.306960000000     0.986380000000     0.434500000000     0.529783   
C90      C      0.172070000000     0.854510000000     0.306380000000     0.526102   
C91      C      0.385680000000     0.787060000000     0.173410000000     0.525703   
C92      C      0.384100000000     0.772520000000     0.052110000000     0.528741   
C93      C      0.386920000000     0.644110000000     0.058420000000     0.527314   
C94      C      0.513200000000     0.772210000000     0.185220000000     0.530163   
C95      C      0.519250000000     0.780440000000     0.060810000000     0.530225   
C96      C      0.377270000000     0.647800000000     0.184210000000     0.518388   
C97      C      0.122280000000     0.787520000000     0.988170000000    -0.00606889 
C98      C      0.135090000000     0.874130000000     0.501190000000    -0.0122475  
C99      C      0.067190000000     0.764270000000     0.001900000000    -0.00868958 
C100     C      0.579210000000     0.852270000000     0.510230000000     0.0150663  
C101     C      0.573460000000     0.886930000000     0.542540000000     0.0508797  
C102     C      0.116200000000     0.868640000000     0.254040000000    -0.0062206  
C103     C      0.125930000000     0.792370000000     0.243950000000    -0.0126262  
C104     C      0.559900000000     0.835640000000     0.246030000000    -0.00753704 
C105     C      0.569090000000     0.758490000000     0.240250000000     0.014802   
C106     C      0.558260000000     0.713340000000     0.212330000000     0.0521923  
C107     C      0.368030000000     0.044540000000     0.254860000000    -0.00561582 
C108     C      0.283350000000     0.036260000000     0.247430000000    -0.0121953  
C109     C      0.392400000000     0.601360000000     0.246180000000    -0.00887603 
C110     C      0.307790000000     0.593800000000     0.240540000000     0.01386    
C111     C      0.274210000000     0.603830000000     0.211360000000     0.0554824  
C112     C      0.319400000000     0.593160000000     0.002130000000    -0.00516823 
C113     C      0.402370000000     0.597450000000     0.496240000000    -0.0117385  
C114     C      0.292830000000     0.036220000000     0.993590000000    -0.00766095 
C115     C      0.376040000000     0.039810000000     0.491040000000     0.0143518  
C116     C      0.409070000000     0.027120000000     0.463980000000     0.0512565  
C117     C      0.364210000000     0.864220000000     0.487440000000    -0.00585411 
C118     C      0.284260000000     0.778600000000     0.981100000000    -0.0100299  
C119     C      0.391610000000     0.835160000000     0.494580000000    -0.00578424 
C120     C      0.306090000000     0.764160000000     0.023190000000     0.012053   
C121     C      0.291340000000     0.777620000000     0.067910000000     0.0578084  
C122     C      0.381420000000     0.881440000000     0.256580000000    -0.00607078 
C123     C      0.295720000000     0.804770000000     0.239520000000    -0.00747827 
C124     C      0.403170000000     0.851220000000     0.233220000000    -0.00963116 
C125     C      0.320150000000     0.811530000000     0.191180000000     0.00799798 
C126     C      0.285800000000     0.775010000000     0.154210000000     0.112444   
C127     C      0.308650000000     0.862700000000     0.804680000000     0.534512   
C128     C      0.298860000000     0.849310000000     0.930050000000     0.534627   
C129     C      0.174140000000     0.857380000000     0.933220000000     0.523356   
C130     C      0.299860000000     0.989350000000     0.809010000000     0.521476   
C131     C      0.306960000000     0.986380000000     0.934500000000     0.529735   
C132     C      0.172070000000     0.854510000000     0.806380000000     0.526096   
C133     C      0.385680000000     0.787060000000     0.673410000000     0.525708   
C134     C      0.384100000000     0.772520000000     0.552110000000     0.528776   
C135     C      0.386920000000     0.644110000000     0.558420000000     0.527317   
C136     C      0.513200000000     0.772210000000     0.685220000000     0.530156   
C137     C      0.519250000000     0.780440000000     0.560810000000     0.53033    
C138     C      0.377270000000     0.647800000000     0.684210000000     0.518393   
C139     C      0.122280000000     0.787520000000     0.488170000000    -0.00604828 
C140     C      0.135090000000     0.874130000000     0.001190000000    -0.0122065  
C141     C      0.067190000000     0.764270000000     0.501900000000    -0.0087028  
C142     C      0.579210000000     0.852270000000     0.010230000000     0.0150603  
C143     C      0.573460000000     0.886930000000     0.042540000000     0.0508856  
C144     C      0.116200000000     0.868640000000     0.754040000000    -0.00621199 
C145     C      0.125930000000     0.792370000000     0.743950000000    -0.0126257  
C146     C      0.559900000000     0.835640000000     0.746030000000    -0.00756233 
C147     C      0.569090000000     0.758490000000     0.740250000000     0.0148007  
C148     C      0.558260000000     0.713340000000     0.712330000000     0.05219    
C149     C      0.368030000000     0.044540000000     0.754860000000    -0.00562038 
C150     C      0.283350000000     0.036260000000     0.747430000000    -0.0122079  
C151     C      0.392400000000     0.601360000000     0.746180000000    -0.00886758 
C152     C      0.307790000000     0.593800000000     0.740530000000     0.0138882  
C153     C      0.274210000000     0.603830000000     0.711360000000     0.0554701  
C154     C      0.319400000000     0.593160000000     0.502140000000    -0.00516143 
C155     C      0.402370000000     0.597450000000     0.996240000000    -0.0117745  
C156     C      0.292830000000     0.036220000000     0.493590000000    -0.00765077 
C157     C      0.376040000000     0.039810000000     0.991030000000     0.0144009  
C158     C      0.409070000000     0.027120000000     0.963990000000     0.0512179  
C159     C      0.364210000000     0.864220000000     0.987440000000    -0.00586082 
C160     C      0.284260000000     0.778600000000     0.481100000000    -0.0100216  
C161     C      0.391610000000     0.835160000000     0.994580000000    -0.00579981 
C162     C      0.306090000000     0.764160000000     0.523190000000     0.0120477  
C163     C      0.291340000000     0.777620000000     0.567910000000     0.0578084  
C164     C      0.381420000000     0.881440000000     0.756590000000    -0.00606653 
C165     C      0.295720000000     0.804770000000     0.739520000000    -0.00745651 
C166     C      0.403170000000     0.851220000000     0.733220000000    -0.00963397 
C167     C      0.320150000000     0.811530000000     0.691170000000     0.00796124 
C168     C      0.285800000000     0.775010000000     0.654210000000     0.112456   
C169     C      0.808650000000     0.362700000000     0.304680000000     0.534501   
C170     C      0.798870000000     0.349310000000     0.430050000000     0.534854   
C171     C      0.674140000000     0.357380000000     0.433220000000     0.523401   
C172     C      0.799860000000     0.489350000000     0.309010000000     0.521595   
C173     C      0.806960000000     0.486390000000     0.434500000000     0.529881   
C174     C      0.672070000000     0.354510000000     0.306380000000     0.52632    
C175     C      0.885680000000     0.287060000000     0.173410000000     0.525627   
C176     C      0.884100000000     0.272520000000     0.052110000000     0.528694   
C177     C      0.886920000000     0.144110000000     0.058420000000     0.527346   
C178     C      0.013200000000     0.272210000000     0.185220000000     0.530295   
C179     C      0.019250000000     0.280440000000     0.060810000000     0.530356   
C180     C      0.877270000000     0.147800000000     0.184210000000     0.518396   
C181     C      0.622280000000     0.287520000000     0.988170000000    -0.00607267 
C182     C      0.635090000000     0.374130000000     0.501190000000    -0.0122458  
C183     C      0.567190000000     0.264270000000     0.001900000000    -0.00869151 
C184     C      0.079210000000     0.352270000000     0.510230000000     0.0150715  
C185     C      0.073460000000     0.386930000000     0.542540000000     0.0509378  
C186     C      0.616200000000     0.368640000000     0.254040000000    -0.00624043 
C187     C      0.625930000000     0.292370000000     0.243950000000    -0.0125628  
C188     C      0.059900000000     0.335650000000     0.246030000000    -0.00760129 
C189     C      0.069090000000     0.258490000000     0.240250000000     0.0147973  
C190     C      0.058260000000     0.213340000000     0.212330000000     0.0522325  
C191     C      0.868030000000     0.544550000000     0.254860000000    -0.00559358 
C192     C      0.783350000000     0.536260000000     0.247430000000    -0.0122202  
C193     C      0.892400000000     0.101360000000     0.246180000000    -0.008863   
C194     C      0.807790000000     0.093810000000     0.240540000000     0.0138396  
C195     C      0.774210000000     0.103830000000     0.211360000000     0.0554802  
C196     C      0.819400000000     0.093160000000     0.002130000000    -0.00510242 
C197     C      0.902370000000     0.097450000000     0.496240000000    -0.0116928  
C198     C      0.792830000000     0.536220000000     0.993590000000    -0.00765199 
C199     C      0.876030000000     0.539820000000     0.491040000000     0.0144635  
C200     C      0.909070000000     0.527120000000     0.463980000000     0.0511258  
C201     C      0.864210000000     0.364220000000     0.487440000000    -0.00579659 
C202     C      0.784260000000     0.278600000000     0.981100000000    -0.0100024  
C203     C      0.891610000000     0.335160000000     0.494580000000    -0.00580042 
C204     C      0.806090000000     0.264160000000     0.023190000000     0.0120438  
C205     C      0.791340000000     0.277620000000     0.067910000000     0.0578174  
C206     C      0.881420000000     0.381440000000     0.256580000000    -0.00605983 
C207     C      0.795720000000     0.304770000000     0.239520000000    -0.00748789 
C208     C      0.903170000000     0.351220000000     0.233220000000    -0.00967973 
C209     C      0.820150000000     0.311530000000     0.191180000000     0.00802954 
C210     C      0.785800000000     0.275010000000     0.154210000000     0.112439   
C211     C      0.808650000000     0.362700000000     0.804680000000     0.534493   
C212     C      0.798870000000     0.349310000000     0.930050000000     0.534846   
C213     C      0.674140000000     0.357380000000     0.933220000000     0.523359   
C214     C      0.799860000000     0.489350000000     0.809010000000     0.521581   
C215     C      0.806960000000     0.486390000000     0.934500000000     0.529833   
C216     C      0.672070000000     0.354510000000     0.806380000000     0.526314   
C217     C      0.885680000000     0.287060000000     0.673410000000     0.525632   
C218     C      0.884100000000     0.272520000000     0.552110000000     0.528729   
C219     C      0.886920000000     0.144110000000     0.558420000000     0.52735    
C220     C      0.013200000000     0.272210000000     0.685220000000     0.530289   
C221     C      0.019250000000     0.280440000000     0.560810000000     0.530461   
C222     C      0.877270000000     0.147800000000     0.684210000000     0.518402   
C223     C      0.622280000000     0.287520000000     0.488170000000    -0.00605216 
C224     C      0.635090000000     0.374130000000     0.001190000000    -0.0122048  
C225     C      0.567190000000     0.264270000000     0.501900000000    -0.00870462 
C226     C      0.079210000000     0.352270000000     0.010230000000     0.0150655  
C227     C      0.073460000000     0.386930000000     0.042540000000     0.0509437  
C228     C      0.616200000000     0.368640000000     0.754040000000    -0.00623181 
C229     C      0.625930000000     0.292370000000     0.743950000000    -0.0125623  
C230     C      0.059900000000     0.335650000000     0.746030000000    -0.00762661 
C231     C      0.069090000000     0.258490000000     0.740250000000     0.0147961  
C232     C      0.058260000000     0.213340000000     0.712330000000     0.0522302  
C233     C      0.868030000000     0.544550000000     0.754860000000    -0.00559814 
C234     C      0.783350000000     0.536260000000     0.747430000000    -0.0122328  
C235     C      0.892400000000     0.101360000000     0.746180000000    -0.00885455 
C236     C      0.807790000000     0.093810000000     0.740530000000     0.0138678  
C237     C      0.774210000000     0.103830000000     0.711360000000     0.0554679  
C238     C      0.819400000000     0.093160000000     0.502140000000    -0.00509551 
C239     C      0.902370000000     0.097450000000     0.996240000000    -0.0117288  
C240     C      0.792830000000     0.536220000000     0.493590000000    -0.0076418  
C241     C      0.876030000000     0.539820000000     0.991030000000     0.0145126  
C242     C      0.909070000000     0.527120000000     0.963990000000     0.0510872  
C243     C      0.864210000000     0.364220000000     0.987440000000    -0.00580326 
C244     C      0.784260000000     0.278600000000     0.481100000000    -0.0099942  
C245     C      0.891610000000     0.335160000000     0.994580000000    -0.00581592 
C246     C      0.806090000000     0.264160000000     0.523190000000     0.0120386  
C247     C      0.791340000000     0.277620000000     0.567910000000     0.0578175  
C248     C      0.881420000000     0.381440000000     0.756590000000    -0.00605558 
C249     C      0.795720000000     0.304770000000     0.739520000000    -0.00746612 
C250     C      0.903170000000     0.351220000000     0.733220000000    -0.00968254 
C251     C      0.820150000000     0.311530000000     0.691170000000     0.0079928  
C252     C      0.785800000000     0.275010000000     0.654210000000     0.11245    
C253     C      0.808650000000     0.862700000000     0.304680000000     0.534519   
C254     C      0.798860000000     0.849310000000     0.430050000000     0.534637   
C255     C      0.674140000000     0.857380000000     0.433220000000     0.523396   
C256     C      0.799860000000     0.989350000000     0.309010000000     0.52149    
C257     C      0.806960000000     0.986380000000     0.434500000000     0.529776   
C258     C      0.672070000000     0.854510000000     0.306380000000     0.526101   
C259     C      0.885680000000     0.787060000000     0.173410000000     0.525705   
C260     C      0.884100000000     0.772520000000     0.052110000000     0.528731   
C261     C      0.886920000000     0.644110000000     0.058420000000     0.527314   
C262     C      0.013200000000     0.772210000000     0.185220000000     0.530284   
C263     C      0.019260000000     0.780440000000     0.060810000000     0.530267   
C264     C      0.877270000000     0.647800000000     0.184210000000     0.518379   
C265     C      0.622280000000     0.787520000000     0.988170000000    -0.00606974 
C266     C      0.635090000000     0.874130000000     0.501190000000    -0.0122439  
C267     C      0.567190000000     0.764270000000     0.001900000000    -0.00869236 
C268     C      0.079210000000     0.852270000000     0.510230000000     0.01508    
C269     C      0.073460000000     0.886930000000     0.542540000000     0.0509034  
C270     C      0.616200000000     0.868640000000     0.254040000000    -0.00622807 
C271     C      0.625930000000     0.792370000000     0.243950000000    -0.0126258  
C272     C      0.059900000000     0.835640000000     0.246030000000    -0.007559   
C273     C      0.069090000000     0.758490000000     0.240250000000     0.0148053  
C274     C      0.058260000000     0.713340000000     0.212330000000     0.0522254  
C275     C      0.868030000000     0.044540000000     0.254860000000    -0.00561738 
C276     C      0.783350000000     0.036260000000     0.247430000000    -0.0121967  
C277     C      0.892400000000     0.601360000000     0.246180000000    -0.00892061 
C278     C      0.807790000000     0.593800000000     0.240540000000     0.0139066  
C279     C      0.774210000000     0.603830000000     0.211360000000     0.0554684  
C280     C      0.819400000000     0.593160000000     0.002130000000    -0.00516715 
C281     C      0.902370000000     0.597450000000     0.496240000000    -0.0117354  
C282     C      0.792820000000     0.036220000000     0.993590000000    -0.00780431 
C283     C      0.876040000000     0.039810000000     0.491040000000     0.0143962  
C284     C      0.909070000000     0.027120000000     0.463980000000     0.0512331  
C285     C      0.864210000000     0.864220000000     0.487440000000    -0.00582033 
C286     C      0.784260000000     0.778600000000     0.981100000000    -0.0100271  
C287     C      0.891620000000     0.835160000000     0.494580000000    -0.0058443  
C288     C      0.806090000000     0.764160000000     0.023190000000     0.0120509  
C289     C      0.791340000000     0.777620000000     0.067910000000     0.057807   
C290     C      0.881420000000     0.881440000000     0.256580000000    -0.00607503 
C291     C      0.795720000000     0.804770000000     0.239520000000    -0.00750704 
C292     C      0.903170000000     0.851220000000     0.233220000000    -0.00962606 
C293     C      0.820160000000     0.811530000000     0.191180000000     0.00806662 
C294     C      0.785800000000     0.775010000000     0.154210000000     0.112419   
C295     C      0.808650000000     0.862700000000     0.804680000000     0.534511   
C296     C      0.798860000000     0.849310000000     0.930050000000     0.534629   
C297     C      0.674140000000     0.857380000000     0.933220000000     0.523355   
C298     C      0.799860000000     0.989350000000     0.809010000000     0.521476   
C299     C      0.806960000000     0.986380000000     0.934500000000     0.529728   
C300     C      0.672070000000     0.854510000000     0.806380000000     0.526094   
C301     C      0.885680000000     0.787060000000     0.673410000000     0.52571    
C302     C      0.884100000000     0.772520000000     0.552110000000     0.528766   
C303     C      0.886920000000     0.644110000000     0.558420000000     0.527317   
C304     C      0.013200000000     0.772210000000     0.685220000000     0.530277   
C305     C      0.019260000000     0.780440000000     0.560810000000     0.530372   
C306     C      0.877270000000     0.647800000000     0.684210000000     0.518385   
C307     C      0.622280000000     0.787520000000     0.488170000000    -0.00604918 
C308     C      0.635090000000     0.874130000000     0.001190000000    -0.012203   
C309     C      0.567190000000     0.764270000000     0.501900000000    -0.00870554 
C310     C      0.079210000000     0.852270000000     0.010230000000     0.015074   
C311     C      0.073460000000     0.886930000000     0.042540000000     0.0509093  
C312     C      0.616200000000     0.868640000000     0.754040000000    -0.00621947 
C313     C      0.625930000000     0.792370000000     0.743950000000    -0.0126254  
C314     C      0.059900000000     0.835640000000     0.746030000000    -0.00758431 
C315     C      0.069090000000     0.758490000000     0.740250000000     0.014804   
C316     C      0.058260000000     0.713340000000     0.712330000000     0.0522231  
C317     C      0.868030000000     0.044540000000     0.754860000000    -0.00562194 
C318     C      0.783350000000     0.036260000000     0.747430000000    -0.0122092  
C319     C      0.892400000000     0.601360000000     0.746180000000    -0.00891216 
C320     C      0.807790000000     0.593800000000     0.740530000000     0.0139347  
C321     C      0.774210000000     0.603830000000     0.711360000000     0.0554561  
C322     C      0.819400000000     0.593160000000     0.502140000000    -0.0051603  
C323     C      0.902370000000     0.597450000000     0.996240000000    -0.0117714  
C324     C      0.792820000000     0.036220000000     0.493590000000    -0.00779418 
C325     C      0.876040000000     0.039810000000     0.991030000000     0.0144453  
C326     C      0.909070000000     0.027120000000     0.963990000000     0.0511945  
C327     C      0.864210000000     0.864220000000     0.987440000000    -0.00582702 
C328     C      0.784260000000     0.778600000000     0.481100000000    -0.0100188  
C329     C      0.891620000000     0.835160000000     0.994580000000    -0.00585984 
C330     C      0.806090000000     0.764160000000     0.523190000000     0.0120457  
C331     C      0.791340000000     0.777620000000     0.567910000000     0.057807   
C332     C      0.881420000000     0.881440000000     0.756590000000    -0.00607078 
C333     C      0.795720000000     0.804770000000     0.739520000000    -0.00748527 
C334     C      0.903170000000     0.851220000000     0.733220000000    -0.00962887 
C335     C      0.820160000000     0.811530000000     0.691170000000     0.0080299  
C336     C      0.785800000000     0.775010000000     0.654210000000     0.112431   
Fe1      Fe     0.228160000000     0.336140000000     0.366520000000     1.35957    
Fe2      Fe     0.228630000000     0.431260000000     0.371130000000     1.35374    
Fe3      Fe     0.322120000000     0.431370000000     0.370780000000     1.37801    
Fe4      Fe     0.365640000000     0.203040000000     0.117750000000     1.37252    
Fe5      Fe     0.457640000000     0.200240000000     0.121530000000     1.36696    
Fe6      Fe     0.460100000000     0.296540000000     0.119510000000     1.36688    
Fe7      Fe     0.228160000000     0.336140000000     0.866520000000     1.35956    
Fe8      Fe     0.228630000000     0.431260000000     0.871130000000     1.35359    
Fe9      Fe     0.322120000000     0.431370000000     0.870780000000     1.37787    
Fe10     Fe     0.365640000000     0.203040000000     0.617750000000     1.37266    
Fe11     Fe     0.457640000000     0.200240000000     0.621530000000     1.36692    
Fe12     Fe     0.460100000000     0.296540000000     0.619510000000     1.36689    
Fe13     Fe     0.228160000000     0.836140000000     0.366520000000     1.35982    
Fe14     Fe     0.228630000000     0.931260000000     0.371130000000     1.3535     
Fe15     Fe     0.322110000000     0.931370000000     0.370780000000     1.37817    
Fe16     Fe     0.365640000000     0.703040000000     0.117750000000     1.37249    
Fe17     Fe     0.457640000000     0.700240000000     0.121530000000     1.36677    
Fe18     Fe     0.460100000000     0.796550000000     0.119510000000     1.3668     
Fe19     Fe     0.228160000000     0.836140000000     0.866520000000     1.3598     
Fe20     Fe     0.228630000000     0.931260000000     0.871130000000     1.35336    
Fe21     Fe     0.322110000000     0.931370000000     0.870780000000     1.37802    
Fe22     Fe     0.365640000000     0.703040000000     0.617750000000     1.37263    
Fe23     Fe     0.457640000000     0.700240000000     0.621530000000     1.36673    
Fe24     Fe     0.460100000000     0.796550000000     0.619510000000     1.36681    
Fe25     Fe     0.728160000000     0.336140000000     0.366520000000     1.35952    
Fe26     Fe     0.728630000000     0.431260000000     0.371130000000     1.35371    
Fe27     Fe     0.822120000000     0.431370000000     0.370780000000     1.37805    
Fe28     Fe     0.865640000000     0.203040000000     0.117750000000     1.37252    
Fe29     Fe     0.957640000000     0.200240000000     0.121530000000     1.36689    
Fe30     Fe     0.960100000000     0.296540000000     0.119510000000     1.3667     
Fe31     Fe     0.728160000000     0.336140000000     0.866520000000     1.3595     
Fe32     Fe     0.728630000000     0.431260000000     0.871130000000     1.35357    
Fe33     Fe     0.822120000000     0.431370000000     0.870780000000     1.37791    
Fe34     Fe     0.865640000000     0.203040000000     0.617750000000     1.37265    
Fe35     Fe     0.957640000000     0.200240000000     0.621530000000     1.36684    
Fe36     Fe     0.960100000000     0.296540000000     0.619510000000     1.36671    
Fe37     Fe     0.728160000000     0.836140000000     0.366520000000     1.35981    
Fe38     Fe     0.728630000000     0.931260000000     0.371130000000     1.3535     
Fe39     Fe     0.822110000000     0.931370000000     0.370780000000     1.37816    
Fe40     Fe     0.865640000000     0.703040000000     0.117750000000     1.37249    
Fe41     Fe     0.957640000000     0.700240000000     0.121530000000     1.3667     
Fe42     Fe     0.960100000000     0.796550000000     0.119510000000     1.3667     
Fe43     Fe     0.728160000000     0.836140000000     0.866520000000     1.3598     
Fe44     Fe     0.728630000000     0.931260000000     0.871130000000     1.35336    
Fe45     Fe     0.822110000000     0.931370000000     0.870780000000     1.37802    
Fe46     Fe     0.865640000000     0.703040000000     0.617750000000     1.37262    
Fe47     Fe     0.957640000000     0.700240000000     0.621530000000     1.36666    
Fe48     Fe     0.960100000000     0.796550000000     0.619510000000     1.36671    
H1       H      0.544790000000     0.253560000000     0.969040000000     0.0419738  
H2       H      0.126170000000     0.262790000000     0.961910000000     0.0430405  
H3       H      0.560940000000     0.351560000000     0.476390000000     0.0407176  
H4       H      0.150590000000     0.412400000000     0.485360000000     0.0460355  
H5       H      0.143430000000     0.288180000000     0.019990000000     0.0438483  
H6       H      0.154530000000     0.378370000000     0.535240000000     0.047464   
H7       H      0.055520000000     0.228710000000     0.021730000000     0.0452654  
H8       H      0.541530000000     0.325530000000     0.281040000000     0.0412867  
H9       H      0.123370000000     0.399830000000     0.278610000000     0.0423184  
H10      H      0.554130000000     0.245690000000     0.276240000000     0.0394011  
H11      H      0.141960000000     0.270560000000     0.260390000000     0.0461104  
H12      H      0.133770000000     0.386110000000     0.219880000000     0.0438174  
H13      H      0.141990000000     0.303670000000     0.208040000000     0.048502   
H14      H      0.545900000000     0.358190000000     0.227560000000     0.0446311  
H15      H      0.401050000000     0.120510000000     0.280930000000     0.0438973  
H16      H      0.392210000000     0.537160000000     0.278580000000     0.0447052  
H17      H      0.311060000000     0.111280000000     0.275570000000     0.0415159  
H18      H      0.247050000000     0.522140000000     0.265900000000     0.0451006  
H19      H      0.365970000000     0.525910000000     0.220730000000     0.0437328  
H20      H      0.275590000000     0.517520000000     0.212450000000     0.0474499  
H21      H      0.428570000000     0.114770000000     0.227730000000     0.0490244  
H22      H      0.281980000000     0.517060000000     0.028310000000     0.0433692  
H23      H      0.295930000000     0.102250000000     0.025160000000     0.0446505  
H24      H      0.371270000000     0.523190000000     0.026710000000     0.0411724  
H25      H      0.438640000000     0.111020000000     0.514620000000     0.0454272  
H26      H      0.323100000000     0.112060000000     0.467800000000     0.0427654  
H27      H      0.410220000000     0.115110000000     0.460750000000     0.0460113  
H28      H      0.257770000000     0.524560000000     0.473720000000     0.042556   
H29      H      0.399760000000     0.324730000000     0.459630000000     0.043549   
H30      H      0.387970000000     0.398720000000     0.466400000000     0.0496969  
H31      H      0.289150000000     0.222350000000     0.023290000000     0.0390769  
H32      H      0.280600000000     0.253710000000     0.951040000000     0.0396706  
H33      H      0.358470000000     0.376990000000     0.522260000000     0.0486928  
H34      H      0.245570000000     0.270170000000     0.988930000000     0.0464173  
H35      H      0.428200000000     0.360140000000     0.511710000000     0.0459366  
H36      H      0.439520000000     0.378070000000     0.216670000000     0.0395453  
H37      H      0.384640000000     0.411200000000     0.231980000000     0.0423359  
H38      H      0.327910000000     0.349280000000     0.178490000000     0.0460195  
H39      H      0.258340000000     0.301420000000     0.235870000000     0.0464489  
H40      H      0.404140000000     0.401150000000     0.288100000000     0.036411   
H41      H      0.290340000000     0.269560000000     0.256380000000     0.0546136  
H42      H      0.411200000000     0.330510000000     0.260820000000     0.0464122  
H43      H      0.544790000000     0.253560000000     0.469040000000     0.0419825  
H44      H      0.126170000000     0.262790000000     0.461910000000     0.0430367  
H45      H      0.560940000000     0.351560000000     0.976390000000     0.0407131  
H46      H      0.150590000000     0.412400000000     0.985360000000     0.0460246  
H47      H      0.143430000000     0.288180000000     0.519990000000     0.0438381  
H48      H      0.154530000000     0.378370000000     0.035250000000     0.0474535  
H49      H      0.055520000000     0.228710000000     0.521730000000     0.0452724  
H50      H      0.541530000000     0.325530000000     0.781030000000     0.0412972  
H51      H      0.123370000000     0.399830000000     0.778610000000     0.0423164  
H52      H      0.554130000000     0.245690000000     0.776240000000     0.0394015  
H53      H      0.141960000000     0.270560000000     0.760390000000     0.0461106  
H54      H      0.133770000000     0.386110000000     0.719880000000     0.0438152  
H55      H      0.141990000000     0.303670000000     0.708040000000     0.048501   
H56      H      0.545900000000     0.358190000000     0.727560000000     0.0446364  
H57      H      0.401050000000     0.120510000000     0.780930000000     0.0438961  
H58      H      0.392210000000     0.537160000000     0.778580000000     0.0447065  
H59      H      0.311060000000     0.111280000000     0.775570000000     0.0415096  
H60      H      0.247050000000     0.522140000000     0.765900000000     0.0451035  
H61      H      0.365970000000     0.525910000000     0.720730000000     0.0437328  
H62      H      0.275590000000     0.517520000000     0.712450000000     0.0474517  
H63      H      0.428570000000     0.114770000000     0.727720000000     0.0490256  
H64      H      0.281980000000     0.517060000000     0.528310000000     0.0433606  
H65      H      0.295930000000     0.102250000000     0.525160000000     0.0446457  
H66      H      0.371270000000     0.523190000000     0.526700000000     0.0411798  
H67      H      0.438640000000     0.111020000000     0.014620000000     0.0454392  
H68      H      0.323100000000     0.112060000000     0.967800000000     0.042766   
H69      H      0.410220000000     0.115110000000     0.960750000000     0.0460177  
H70      H      0.257770000000     0.524560000000     0.973720000000     0.0425581  
H71      H      0.399760000000     0.324730000000     0.959630000000     0.0435518  
H72      H      0.387970000000     0.398720000000     0.966400000000     0.0496972  
H73      H      0.289150000000     0.222350000000     0.523300000000     0.039076   
H74      H      0.280600000000     0.253710000000     0.451040000000     0.0396703  
H75      H      0.358470000000     0.376990000000     0.022260000000     0.0487002  
H76      H      0.245570000000     0.270170000000     0.488930000000     0.046418   
H77      H      0.428200000000     0.360140000000     0.011710000000     0.0459454  
H78      H      0.439520000000     0.378070000000     0.716670000000     0.0395456  
H79      H      0.384640000000     0.411200000000     0.731980000000     0.0423337  
H80      H      0.327910000000     0.349280000000     0.678490000000     0.0460291  
H81      H      0.258340000000     0.301420000000     0.735860000000     0.0464413  
H82      H      0.404140000000     0.401150000000     0.788100000000     0.0364111  
H83      H      0.290340000000     0.269560000000     0.756380000000     0.0546102  
H84      H      0.411200000000     0.330510000000     0.760820000000     0.0464128  
H85      H      0.544790000000     0.753560000000     0.969040000000     0.0419695  
H86      H      0.126170000000     0.762790000000     0.961910000000     0.0430349  
H87      H      0.560940000000     0.851560000000     0.476390000000     0.0407058  
H88      H      0.150590000000     0.912400000000     0.485360000000     0.0460076  
H89      H      0.143430000000     0.788180000000     0.019990000000     0.0438416  
H90      H      0.154530000000     0.878370000000     0.535240000000     0.0474437  
H91      H      0.055520000000     0.728710000000     0.021730000000     0.0452576  
H92      H      0.541530000000     0.825530000000     0.281040000000     0.0412584  
H93      H      0.123370000000     0.899830000000     0.278610000000     0.0422874  
H94      H      0.554130000000     0.745700000000     0.276240000000     0.0393958  
H95      H      0.141960000000     0.770560000000     0.260390000000     0.0461139  
H96      H      0.133770000000     0.886110000000     0.219880000000     0.0437855  
H97      H      0.141990000000     0.803670000000     0.208040000000     0.0485058  
H98      H      0.545900000000     0.858190000000     0.227560000000     0.0445922  
H99      H      0.401050000000     0.620510000000     0.280930000000     0.0438857  
H100     H      0.392220000000     0.037160000000     0.278580000000     0.0447621  
H101     H      0.311060000000     0.611280000000     0.275570000000     0.0414959  
H102     H      0.247050000000     0.022140000000     0.265900000000     0.0451479  
H103     H      0.365980000000     0.025910000000     0.220730000000     0.0437704  
H104     H      0.275590000000     0.017520000000     0.212450000000     0.0474872  
H105     H      0.428570000000     0.614770000000     0.227730000000     0.0490181  
H106     H      0.281980000000     0.017060000000     0.028310000000     0.0434117  
H107     H      0.295930000000     0.602250000000     0.025160000000     0.0446414  
H108     H      0.371270000000     0.023190000000     0.026710000000     0.0412399  
H109     H      0.438640000000     0.611020000000     0.514620000000     0.0454225  
H110     H      0.323100000000     0.612060000000     0.467800000000     0.0427531  
H111     H      0.410220000000     0.615110000000     0.460750000000     0.0460102  
H112     H      0.257770000000     0.024560000000     0.473720000000     0.0426181  
H113     H      0.399760000000     0.824730000000     0.459630000000     0.0435345  
H114     H      0.387960000000     0.898710000000     0.466400000000     0.0496975  
H115     H      0.289150000000     0.722350000000     0.023290000000     0.0390692  
H116     H      0.280600000000     0.753710000000     0.951040000000     0.0396649  
H117     H      0.358470000000     0.876980000000     0.522260000000     0.0486944  
H118     H      0.245570000000     0.770170000000     0.988930000000     0.0464148  
H119     H      0.428200000000     0.860140000000     0.511710000000     0.0459123  
H120     H      0.439520000000     0.878080000000     0.216670000000     0.0395168  
H121     H      0.384640000000     0.911200000000     0.231980000000     0.0423062  
H122     H      0.327910000000     0.849280000000     0.178490000000     0.0460049  
H123     H      0.258340000000     0.801420000000     0.235870000000     0.0464419  
H124     H      0.404140000000     0.901150000000     0.288100000000     0.0363934  
H125     H      0.290340000000     0.769560000000     0.256380000000     0.0546091  
H126     H      0.411200000000     0.830510000000     0.260820000000     0.046406   
H127     H      0.544790000000     0.753560000000     0.469040000000     0.0419783  
H128     H      0.126170000000     0.762790000000     0.461910000000     0.0430311  
H129     H      0.560940000000     0.851560000000     0.976390000000     0.0407012  
H130     H      0.150590000000     0.912400000000     0.985360000000     0.0459967  
H131     H      0.143430000000     0.788180000000     0.519990000000     0.0438314  
H132     H      0.154530000000     0.878370000000     0.035250000000     0.0474333  
H133     H      0.055520000000     0.728710000000     0.521730000000     0.0452646  
H134     H      0.541530000000     0.825530000000     0.781030000000     0.0412689  
H135     H      0.123370000000     0.899830000000     0.778610000000     0.0422854  
H136     H      0.554130000000     0.745700000000     0.776240000000     0.0393962  
H137     H      0.141960000000     0.770560000000     0.760390000000     0.0461141  
H138     H      0.133770000000     0.886110000000     0.719880000000     0.0437833  
H139     H      0.141990000000     0.803670000000     0.708040000000     0.0485047  
H140     H      0.545900000000     0.858190000000     0.727560000000     0.0445975  
H141     H      0.401050000000     0.620510000000     0.780930000000     0.0438845  
H142     H      0.392220000000     0.037160000000     0.778580000000     0.0447635  
H143     H      0.311060000000     0.611280000000     0.775570000000     0.0414895  
H144     H      0.247050000000     0.022140000000     0.765900000000     0.0451508  
H145     H      0.365980000000     0.025910000000     0.720730000000     0.0437705  
H146     H      0.275590000000     0.017520000000     0.712450000000     0.0474889  
H147     H      0.428570000000     0.614770000000     0.727720000000     0.0490192  
H148     H      0.281980000000     0.017060000000     0.528310000000     0.0434031  
H149     H      0.295930000000     0.602250000000     0.525160000000     0.0446366  
H150     H      0.371270000000     0.023190000000     0.526700000000     0.0412474  
H151     H      0.438640000000     0.611020000000     0.014620000000     0.0454345  
H152     H      0.323100000000     0.612060000000     0.967800000000     0.0427536  
H153     H      0.410220000000     0.615110000000     0.960750000000     0.0460166  
H154     H      0.257770000000     0.024560000000     0.973720000000     0.0426202  
H155     H      0.399760000000     0.824730000000     0.959630000000     0.0435373  
H156     H      0.387960000000     0.898710000000     0.966400000000     0.0496977  
H157     H      0.289150000000     0.722350000000     0.523300000000     0.0390683  
H158     H      0.280600000000     0.753710000000     0.451040000000     0.0396646  
H159     H      0.358470000000     0.876980000000     0.022260000000     0.0487018  
H160     H      0.245570000000     0.770170000000     0.488930000000     0.0464155  
H161     H      0.428200000000     0.860140000000     0.011710000000     0.0459211  
H162     H      0.439520000000     0.878080000000     0.716670000000     0.0395171  
H163     H      0.384640000000     0.911200000000     0.731980000000     0.0423041  
H164     H      0.327910000000     0.849280000000     0.678490000000     0.0460145  
H165     H      0.258340000000     0.801420000000     0.735860000000     0.0464343  
H166     H      0.404140000000     0.901150000000     0.788100000000     0.0363935  
H167     H      0.290340000000     0.769560000000     0.756380000000     0.0546057  
H168     H      0.411200000000     0.830510000000     0.760820000000     0.0464066  
H169     H      0.044790000000     0.253560000000     0.969040000000     0.0419959  
H170     H      0.626170000000     0.262790000000     0.961910000000     0.0430322  
H171     H      0.060940000000     0.351560000000     0.476390000000     0.0407345  
H172     H      0.650590000000     0.412400000000     0.485360000000     0.0460407  
H173     H      0.643430000000     0.288180000000     0.019990000000     0.0438452  
H174     H      0.654530000000     0.378370000000     0.535240000000     0.0474624  
H175     H      0.555520000000     0.228710000000     0.021730000000     0.045247   
H176     H      0.041530000000     0.325530000000     0.281040000000     0.0413082  
H177     H      0.623370000000     0.399830000000     0.278610000000     0.0423054  
H178     H      0.054130000000     0.245690000000     0.276240000000     0.0394188  
H179     H      0.641960000000     0.270560000000     0.260390000000     0.0461064  
H180     H      0.633770000000     0.386110000000     0.219880000000     0.0438114  
H181     H      0.641990000000     0.303670000000     0.208040000000     0.048498   
H182     H      0.045900000000     0.358190000000     0.227560000000     0.044651   
H183     H      0.901050000000     0.120510000000     0.280930000000     0.0438812  
H184     H      0.892210000000     0.537160000000     0.278580000000     0.044697   
H185     H      0.811070000000     0.111280000000     0.275570000000     0.0415151  
H186     H      0.747050000000     0.522140000000     0.265900000000     0.0450941  
H187     H      0.865970000000     0.525910000000     0.220730000000     0.0437248  
H188     H      0.775590000000     0.517520000000     0.212450000000     0.0474518  
H189     H      0.928570000000     0.114770000000     0.227730000000     0.0490045  
H190     H      0.781980000000     0.517060000000     0.028310000000     0.0433681  
H191     H      0.795930000000     0.102250000000     0.025160000000     0.0446361  
H192     H      0.871270000000     0.523190000000     0.026710000000     0.0411677  
H193     H      0.938640000000     0.111020000000     0.514620000000     0.0454082  
H194     H      0.823100000000     0.112060000000     0.467800000000     0.0427481  
H195     H      0.910220000000     0.115110000000     0.460750000000     0.0459987  
H196     H      0.757770000000     0.524560000000     0.473720000000     0.0425541  
H197     H      0.899760000000     0.324730000000     0.459630000000     0.0435305  
H198     H      0.887970000000     0.398720000000     0.466400000000     0.0496862  
H199     H      0.789150000000     0.222350000000     0.023290000000     0.0390741  
H200     H      0.780600000000     0.253710000000     0.951040000000     0.0396614  
H201     H      0.858470000000     0.376990000000     0.522260000000     0.0486919  
H202     H      0.745570000000     0.270170000000     0.988930000000     0.0464119  
H203     H      0.928200000000     0.360140000000     0.511710000000     0.0459152  
H204     H      0.939520000000     0.378070000000     0.216670000000     0.0395296  
H205     H      0.884650000000     0.411200000000     0.231980000000     0.0423244  
H206     H      0.827910000000     0.349280000000     0.178490000000     0.0460112  
H207     H      0.758340000000     0.301420000000     0.235870000000     0.046448   
H208     H      0.904140000000     0.401150000000     0.288100000000     0.0363965  
H209     H      0.790340000000     0.269560000000     0.256380000000     0.0546121  
H210     H      0.911200000000     0.330510000000     0.260820000000     0.046402   
H211     H      0.044790000000     0.253560000000     0.469040000000     0.0420046  
H212     H      0.626170000000     0.262790000000     0.461910000000     0.0430284  
H213     H      0.060940000000     0.351560000000     0.976390000000     0.04073    
H214     H      0.650590000000     0.412400000000     0.985360000000     0.0460297  
H215     H      0.643430000000     0.288180000000     0.519990000000     0.043835   
H216     H      0.654530000000     0.378370000000     0.035250000000     0.047452   
H217     H      0.555520000000     0.228710000000     0.521730000000     0.0452539  
H218     H      0.041530000000     0.325530000000     0.781030000000     0.0413187  
H219     H      0.623370000000     0.399830000000     0.778610000000     0.0423034  
H220     H      0.054130000000     0.245690000000     0.776240000000     0.0394192  
H221     H      0.641960000000     0.270560000000     0.760390000000     0.0461066  
H222     H      0.633770000000     0.386110000000     0.719880000000     0.0438091  
H223     H      0.641990000000     0.303670000000     0.708040000000     0.0484969  
H224     H      0.045900000000     0.358190000000     0.727560000000     0.0446564  
H225     H      0.901050000000     0.120510000000     0.780930000000     0.04388    
H226     H      0.892210000000     0.537160000000     0.778580000000     0.0446983  
H227     H      0.811070000000     0.111280000000     0.775570000000     0.0415087  
H228     H      0.747050000000     0.522140000000     0.765900000000     0.045097   
H229     H      0.865970000000     0.525910000000     0.720730000000     0.0437249  
H230     H      0.775590000000     0.517520000000     0.712450000000     0.0474535  
H231     H      0.928570000000     0.114770000000     0.727720000000     0.0490057  
H232     H      0.781980000000     0.517060000000     0.528310000000     0.0433595  
H233     H      0.795930000000     0.102250000000     0.525160000000     0.0446313  
H234     H      0.871270000000     0.523190000000     0.526700000000     0.0411752  
H235     H      0.938640000000     0.111020000000     0.014620000000     0.0454202  
H236     H      0.823100000000     0.112060000000     0.967800000000     0.0427486  
H237     H      0.910220000000     0.115110000000     0.960750000000     0.0460051  
H238     H      0.757770000000     0.524560000000     0.973720000000     0.0425563  
H239     H      0.899760000000     0.324730000000     0.959630000000     0.0435334  
H240     H      0.887970000000     0.398720000000     0.966400000000     0.0496865  
H241     H      0.789150000000     0.222350000000     0.523300000000     0.0390732  
H242     H      0.780600000000     0.253710000000     0.451040000000     0.0396612  
H243     H      0.858470000000     0.376990000000     0.022260000000     0.0486993  
H244     H      0.745570000000     0.270170000000     0.488930000000     0.0464125  
H245     H      0.928200000000     0.360140000000     0.011710000000     0.045924   
H246     H      0.939520000000     0.378070000000     0.716670000000     0.0395299  
H247     H      0.884650000000     0.411200000000     0.731980000000     0.0423222  
H248     H      0.827910000000     0.349280000000     0.678490000000     0.0460208  
H249     H      0.758340000000     0.301420000000     0.735860000000     0.0464404  
H250     H      0.904140000000     0.401150000000     0.788100000000     0.0363966  
H251     H      0.790340000000     0.269560000000     0.756380000000     0.0546087  
H252     H      0.911200000000     0.330510000000     0.760820000000     0.0464026  
H253     H      0.044790000000     0.753560000000     0.969040000000     0.0419947  
H254     H      0.626170000000     0.762790000000     0.961910000000     0.043027   
H255     H      0.060940000000     0.851560000000     0.476390000000     0.0407251  
H256     H      0.650590000000     0.912400000000     0.485360000000     0.0460027  
H257     H      0.643430000000     0.788180000000     0.019990000000     0.0438403  
H258     H      0.654530000000     0.878370000000     0.535240000000     0.0474435  
H259     H      0.555520000000     0.728710000000     0.021730000000     0.0452415  
H260     H      0.041530000000     0.825530000000     0.281040000000     0.0412874  
H261     H      0.623370000000     0.899830000000     0.278610000000     0.0422817  
H262     H      0.054130000000     0.745700000000     0.276240000000     0.0394156  
H263     H      0.641960000000     0.770560000000     0.260390000000     0.0461098  
H264     H      0.633770000000     0.886110000000     0.219880000000     0.0437856  
H265     H      0.641990000000     0.803670000000     0.208040000000     0.0485055  
H266     H      0.045910000000     0.858190000000     0.227560000000     0.0446211  
H267     H      0.901060000000     0.620510000000     0.280930000000     0.043877   
H268     H      0.892220000000     0.037160000000     0.278580000000     0.0447514  
H269     H      0.811060000000     0.611280000000     0.275570000000     0.0414811  
H270     H      0.747050000000     0.022140000000     0.265900000000     0.0451464  
H271     H      0.865980000000     0.025910000000     0.220730000000     0.0437653  
H272     H      0.775590000000     0.017520000000     0.212450000000     0.047487   
H273     H      0.928570000000     0.614770000000     0.227730000000     0.0490061  
H274     H      0.781980000000     0.017060000000     0.028310000000     0.0434496  
H275     H      0.795930000000     0.602250000000     0.025160000000     0.0446387  
H276     H      0.871270000000     0.023190000000     0.026710000000     0.0412261  
H277     H      0.938640000000     0.611020000000     0.514620000000     0.045401   
H278     H      0.823100000000     0.612060000000     0.467800000000     0.0427477  
H279     H      0.910220000000     0.615110000000     0.460750000000     0.0459949  
H280     H      0.757770000000     0.024560000000     0.473720000000     0.0426541  
H281     H      0.899760000000     0.824730000000     0.459630000000     0.0435383  
H282     H      0.887970000000     0.898710000000     0.466400000000     0.0496762  
H283     H      0.789150000000     0.722350000000     0.023290000000     0.0390669  
H284     H      0.780600000000     0.753710000000     0.951040000000     0.0396602  
H285     H      0.858470000000     0.876980000000     0.522260000000     0.0486845  
H286     H      0.745570000000     0.770170000000     0.988930000000     0.0464115  
H287     H      0.928200000000     0.860140000000     0.511710000000     0.0459116  
H288     H      0.939520000000     0.878080000000     0.216670000000     0.0394945  
H289     H      0.884640000000     0.911200000000     0.231980000000     0.0422996  
H290     H      0.827910000000     0.849280000000     0.178490000000     0.0459824  
H291     H      0.758340000000     0.801420000000     0.235870000000     0.0464468  
H292     H      0.904140000000     0.901150000000     0.288100000000     0.0363816  
H293     H      0.790340000000     0.769560000000     0.256380000000     0.054611   
H294     H      0.911200000000     0.830510000000     0.260820000000     0.0463889  
H295     H      0.044790000000     0.753560000000     0.469040000000     0.0420035  
H296     H      0.626170000000     0.762790000000     0.461910000000     0.0430233  
H297     H      0.060940000000     0.851560000000     0.976390000000     0.0407206  
H298     H      0.650590000000     0.912400000000     0.985360000000     0.0459918  
H299     H      0.643430000000     0.788180000000     0.519990000000     0.0438301  
H300     H      0.654530000000     0.878370000000     0.035250000000     0.047433   
H301     H      0.555520000000     0.728710000000     0.521730000000     0.0452484  
H302     H      0.041530000000     0.825530000000     0.781030000000     0.0412979  
H303     H      0.623370000000     0.899830000000     0.778610000000     0.0422797  
H304     H      0.054130000000     0.745700000000     0.776240000000     0.039416   
H305     H      0.641960000000     0.770560000000     0.760390000000     0.04611    
H306     H      0.633770000000     0.886110000000     0.719880000000     0.0437834  
H307     H      0.641990000000     0.803670000000     0.708040000000     0.0485044  
H308     H      0.045910000000     0.858190000000     0.727560000000     0.0446265  
H309     H      0.901060000000     0.620510000000     0.780930000000     0.0438758  
H310     H      0.892220000000     0.037160000000     0.778580000000     0.0447527  
H311     H      0.811060000000     0.611280000000     0.775570000000     0.0414747  
H312     H      0.747050000000     0.022140000000     0.765900000000     0.0451493  
H313     H      0.865980000000     0.025910000000     0.720730000000     0.0437653  
H314     H      0.775590000000     0.017520000000     0.712450000000     0.0474888  
H315     H      0.928570000000     0.614770000000     0.727720000000     0.0490073  
H316     H      0.781980000000     0.017060000000     0.528310000000     0.043441   
H317     H      0.795930000000     0.602250000000     0.525160000000     0.044634   
H318     H      0.871270000000     0.023190000000     0.526700000000     0.0412336  
H319     H      0.938640000000     0.611020000000     0.014620000000     0.0454131  
H320     H      0.823100000000     0.612060000000     0.967800000000     0.0427482  
H321     H      0.910220000000     0.615110000000     0.960750000000     0.0460013  
H322     H      0.757770000000     0.024560000000     0.973720000000     0.0426562  
H323     H      0.899760000000     0.824730000000     0.959630000000     0.0435411  
H324     H      0.887970000000     0.898710000000     0.966400000000     0.0496765  
H325     H      0.789150000000     0.722350000000     0.523300000000     0.039066   
H326     H      0.780600000000     0.753710000000     0.451040000000     0.0396599  
H327     H      0.858470000000     0.876980000000     0.022260000000     0.048692   
H328     H      0.745570000000     0.770170000000     0.488930000000     0.0464122  
H329     H      0.928200000000     0.860140000000     0.011710000000     0.0459204  
H330     H      0.939520000000     0.878080000000     0.716670000000     0.0394947  
H331     H      0.884640000000     0.911200000000     0.731980000000     0.0422975  
H332     H      0.827910000000     0.849280000000     0.678490000000     0.045992   
H333     H      0.758340000000     0.801420000000     0.735860000000     0.0464391  
H334     H      0.904140000000     0.901150000000     0.788100000000     0.0363817  
H335     H      0.790340000000     0.769560000000     0.756380000000     0.0546076  
H336     H      0.911200000000     0.830510000000     0.760820000000     0.0463894  
N1       N      0.556870000000     0.299730000000     0.028230000000    -0.187103   
N2       N      0.142880000000     0.339640000000     0.471140000000    -0.185559   
N3       N      0.568270000000     0.418750000000     0.572190000000    -0.110429   
N4       N      0.547400000000     0.288470000000     0.220960000000    -0.187327   
N5       N      0.137970000000     0.338250000000     0.270710000000    -0.186698   
N6       N      0.548480000000     0.171900000000     0.186810000000    -0.109494   
N7       N      0.358620000000     0.114020000000     0.220630000000    -0.184044   
N8       N      0.317070000000     0.523950000000     0.273320000000    -0.185365   
N9       N      0.243030000000     0.112510000000     0.184560000000    -0.101906   
N10      N      0.325840000000     0.521210000000     0.469950000000    -0.188066   
N11      N      0.369630000000     0.111350000000     0.021500000000    -0.186803   
N12      N      0.439560000000     0.515620000000     0.439280000000    -0.112505   
N13      N      0.361210000000     0.288600000000     0.021570000000    -0.188136   
N14      N      0.315260000000     0.331520000000     0.465720000000    -0.186726   
N15      N      0.282160000000     0.294510000000     0.110000000000    -0.124082   
N16      N      0.369280000000     0.314570000000     0.197980000000    -0.185839   
N17      N      0.328440000000     0.348460000000     0.269300000000    -0.189683   
N18      N      0.258740000000     0.223500000000     0.162880000000    -0.10197    
N19      N      0.556870000000     0.299730000000     0.528230000000    -0.187119   
N20      N      0.142880000000     0.339640000000     0.971140000000    -0.185553   
N21      N      0.568270000000     0.418750000000     0.072190000000    -0.110428   
N22      N      0.547400000000     0.288470000000     0.720960000000    -0.187324   
N23      N      0.137970000000     0.338250000000     0.770710000000    -0.186698   
N24      N      0.548480000000     0.171900000000     0.686810000000    -0.109495   
N25      N      0.358620000000     0.114020000000     0.720630000000    -0.184053   
N26      N      0.317070000000     0.523950000000     0.773320000000    -0.185361   
N27      N      0.243030000000     0.112510000000     0.684560000000    -0.101905   
N28      N      0.325840000000     0.521210000000     0.969950000000    -0.188061   
N29      N      0.369630000000     0.111350000000     0.521500000000    -0.186813   
N30      N      0.439560000000     0.515620000000     0.939280000000    -0.112495   
N31      N      0.361210000000     0.288600000000     0.521570000000    -0.18815    
N32      N      0.315260000000     0.331520000000     0.965720000000    -0.186723   
N33      N      0.282160000000     0.294510000000     0.610000000000    -0.124085   
N34      N      0.369280000000     0.314570000000     0.697980000000    -0.185833   
N35      N      0.328440000000     0.348460000000     0.769300000000    -0.189684   
N36      N      0.258740000000     0.223500000000     0.662880000000    -0.101972   
N37      N      0.556870000000     0.799730000000     0.028230000000    -0.187104   
N38      N      0.142880000000     0.839640000000     0.471140000000    -0.185564   
N39      N      0.568270000000     0.918750000000     0.572190000000    -0.110468   
N40      N      0.547400000000     0.788470000000     0.220960000000    -0.18734    
N41      N      0.137970000000     0.838260000000     0.270710000000    -0.186699   
N42      N      0.548480000000     0.671900000000     0.186810000000    -0.109506   
N43      N      0.358620000000     0.614020000000     0.220630000000    -0.184048   
N44      N      0.317070000000     0.023950000000     0.273320000000    -0.185276   
N45      N      0.243030000000     0.612510000000     0.184560000000    -0.101922   
N46      N      0.325840000000     0.021210000000     0.469950000000    -0.187917   
N47      N      0.369630000000     0.611350000000     0.021500000000    -0.186797   
N48      N      0.439560000000     0.015620000000     0.439280000000    -0.11245    
N49      N      0.361210000000     0.788600000000     0.021570000000    -0.188153   
N50      N      0.315260000000     0.831520000000     0.465720000000    -0.186674   
N51      N      0.282160000000     0.794510000000     0.110000000000    -0.124088   
N52      N      0.369280000000     0.814570000000     0.197980000000    -0.185844   
N53      N      0.328440000000     0.848460000000     0.269300000000    -0.18969    
N54      N      0.258740000000     0.723500000000     0.162880000000    -0.101976   
N55      N      0.556870000000     0.799730000000     0.528230000000    -0.187119   
N56      N      0.142880000000     0.839640000000     0.971140000000    -0.185558   
N57      N      0.568270000000     0.918750000000     0.072190000000    -0.110468   
N58      N      0.547400000000     0.788470000000     0.720960000000    -0.187337   
N59      N      0.137970000000     0.838260000000     0.770710000000    -0.186699   
N60      N      0.548480000000     0.671900000000     0.686810000000    -0.109507   
N61      N      0.358620000000     0.614020000000     0.720630000000    -0.184056   
N62      N      0.317070000000     0.023950000000     0.773320000000    -0.185272   
N63      N      0.243030000000     0.612510000000     0.684560000000    -0.101921   
N64      N      0.325840000000     0.021210000000     0.969950000000    -0.187912   
N65      N      0.369630000000     0.611350000000     0.521500000000    -0.186807   
N66      N      0.439560000000     0.015620000000     0.939280000000    -0.11244    
N67      N      0.361210000000     0.788600000000     0.521570000000    -0.188167   
N68      N      0.315260000000     0.831520000000     0.965720000000    -0.186671   
N69      N      0.282160000000     0.794510000000     0.610000000000    -0.12409    
N70      N      0.369280000000     0.814570000000     0.697980000000    -0.185838   
N71      N      0.328440000000     0.848460000000     0.769300000000    -0.189691   
N72      N      0.258740000000     0.723500000000     0.662880000000    -0.101978   
N73      N      0.056870000000     0.299730000000     0.028230000000    -0.187114   
N74      N      0.642880000000     0.339640000000     0.471140000000    -0.185559   
N75      N      0.068270000000     0.418750000000     0.572190000000    -0.110404   
N76      N      0.047400000000     0.288470000000     0.220960000000    -0.187336   
N77      N      0.637970000000     0.338250000000     0.270710000000    -0.186737   
N78      N      0.048480000000     0.171900000000     0.186810000000    -0.109464   
N79      N      0.858620000000     0.114020000000     0.220630000000    -0.184047   
N80      N      0.817070000000     0.523950000000     0.273320000000    -0.18537    
N81      N      0.743020000000     0.112510000000     0.184560000000    -0.101897   
N82      N      0.825840000000     0.521210000000     0.469950000000    -0.188066   
N83      N      0.869630000000     0.111350000000     0.021500000000    -0.186812   
N84      N      0.939560000000     0.515620000000     0.439280000000    -0.112525   
N85      N      0.861210000000     0.288600000000     0.021570000000    -0.188142   
N86      N      0.815260000000     0.331520000000     0.465720000000    -0.186757   
N87      N      0.782160000000     0.294510000000     0.110000000000    -0.124081   
N88      N      0.869270000000     0.314570000000     0.197980000000    -0.185792   
N89      N      0.828440000000     0.348460000000     0.269300000000    -0.189682   
N90      N      0.758740000000     0.223500000000     0.162880000000    -0.101972   
N91      N      0.056870000000     0.299730000000     0.528230000000    -0.187129   
N92      N      0.642880000000     0.339640000000     0.971140000000    -0.185553   
N93      N      0.068270000000     0.418750000000     0.072190000000    -0.110403   
N94      N      0.047400000000     0.288470000000     0.720960000000    -0.187333   
N95      N      0.637970000000     0.338250000000     0.770710000000    -0.186737   
N96      N      0.048480000000     0.171900000000     0.686810000000    -0.109465   
N97      N      0.858620000000     0.114020000000     0.720630000000    -0.184056   
N98      N      0.817070000000     0.523950000000     0.773320000000    -0.185365   
N99      N      0.743020000000     0.112510000000     0.684560000000    -0.101895   
N100     N      0.825840000000     0.521210000000     0.969950000000    -0.188061   
N101     N      0.869630000000     0.111350000000     0.521500000000    -0.186822   
N102     N      0.939560000000     0.515620000000     0.939280000000    -0.112514   
N103     N      0.861210000000     0.288600000000     0.521570000000    -0.188156   
N104     N      0.815260000000     0.331520000000     0.965720000000    -0.186755   
N105     N      0.782160000000     0.294510000000     0.610000000000    -0.124084   
N106     N      0.869270000000     0.314570000000     0.697980000000    -0.185786   
N107     N      0.828440000000     0.348460000000     0.769300000000    -0.189683   
N108     N      0.758740000000     0.223500000000     0.662880000000    -0.101974   
N109     N      0.056870000000     0.799730000000     0.028230000000    -0.187146   
N110     N      0.642880000000     0.839640000000     0.471140000000    -0.185566   
N111     N      0.068270000000     0.918750000000     0.572190000000    -0.110444   
N112     N      0.047400000000     0.788470000000     0.220960000000    -0.187346   
N113     N      0.637970000000     0.838260000000     0.270710000000    -0.1867     
N114     N      0.048480000000     0.671900000000     0.186810000000    -0.109476   
N115     N      0.858610000000     0.614020000000     0.220630000000    -0.184046   
N116     N      0.817070000000     0.023950000000     0.273320000000    -0.185277   
N117     N      0.743030000000     0.612510000000     0.184560000000    -0.101925   
N118     N      0.825850000000     0.021210000000     0.469950000000    -0.187899   
N119     N      0.869630000000     0.611350000000     0.021500000000    -0.186801   
N120     N      0.939560000000     0.015620000000     0.439280000000    -0.112468   
N121     N      0.861210000000     0.788600000000     0.021570000000    -0.188144   
N122     N      0.815260000000     0.831520000000     0.465720000000    -0.186678   
N123     N      0.782160000000     0.794510000000     0.110000000000    -0.124085   
N124     N      0.869280000000     0.814570000000     0.197980000000    -0.185861   
N125     N      0.828440000000     0.848460000000     0.269300000000    -0.189688   
N126     N      0.758740000000     0.723500000000     0.162880000000    -0.101977   
N127     N      0.056870000000     0.799730000000     0.528230000000    -0.187162   
N128     N      0.642880000000     0.839640000000     0.971140000000    -0.18556    
N129     N      0.068270000000     0.918750000000     0.072190000000    -0.110443   
N130     N      0.047400000000     0.788470000000     0.720960000000    -0.187343   
N131     N      0.637970000000     0.838260000000     0.770710000000    -0.1867     
N132     N      0.048480000000     0.671900000000     0.686810000000    -0.109477   
N133     N      0.858610000000     0.614020000000     0.720630000000    -0.184055   
N134     N      0.817070000000     0.023950000000     0.773320000000    -0.185272   
N135     N      0.743030000000     0.612510000000     0.684560000000    -0.101924   
N136     N      0.825850000000     0.021210000000     0.969950000000    -0.187894   
N137     N      0.869630000000     0.611350000000     0.521500000000    -0.186811   
N138     N      0.939560000000     0.015620000000     0.939280000000    -0.112458   
N139     N      0.861210000000     0.788600000000     0.521570000000    -0.188158   
N140     N      0.815260000000     0.831520000000     0.965720000000    -0.186675   
N141     N      0.782160000000     0.794510000000     0.610000000000    -0.124088   
N142     N      0.869280000000     0.814570000000     0.697980000000    -0.185855   
N143     N      0.828440000000     0.848460000000     0.769300000000    -0.189688   
N144     N      0.758740000000     0.723500000000     0.662880000000    -0.101979   
O1       O      0.329670000000     0.384330000000     0.403900000000    -0.505856   
O2       O      0.253820000000     0.461150000000     0.315260000000    -0.505277   
O3       O      0.253110000000     0.329470000000     0.421690000000    -0.511065   
O4       O      0.273530000000     0.329930000000     0.329500000000    -0.499851   
O5       O      0.323020000000     0.456680000000     0.427890000000    -0.509118   
O6       O      0.174310000000     0.386140000000     0.336220000000    -0.498665   
O7       O      0.259710000000     0.399400000000     0.369310000000    -0.869583   
O8       O      0.201330000000     0.404080000000     0.427100000000    -0.507904   
O9       O      0.175220000000     0.327350000000     0.403260000000    -0.495279   
O10      O      0.327240000000     0.408640000000     0.314190000000    -0.517304   
O11      O      0.200310000000     0.336460000000     0.311080000000    -0.509479   
O12      O      0.274530000000     0.485000000000     0.406650000000    -0.49864    
O13      O      0.329940000000     0.486560000000     0.337280000000    -0.495899   
O14      O      0.417110000000     0.303940000000     0.079780000000    -0.493572   
O15      O      0.485100000000     0.225920000000     0.177900000000    -0.504515   
O16      O      0.365210000000     0.226120000000     0.059860000000    -0.509371   
O17      O      0.357200000000     0.252150000000     0.146170000000    -0.493356   
O18      O      0.491810000000     0.299380000000     0.065660000000    -0.505899   
O19      O      0.409750000000     0.147950000000     0.157020000000    -0.490094   
O20      O      0.428180000000     0.233520000000     0.119480000000    -0.875334   
O21      O      0.432890000000     0.171660000000     0.065150000000    -0.507552   
O22      O      0.357020000000     0.146420000000     0.087020000000    -0.500344   
O23      O      0.431010000000     0.299800000000     0.173670000000    -0.503397   
O24      O      0.361100000000     0.177460000000     0.175950000000    -0.492323   
O25      O      0.512980000000     0.244690000000     0.087450000000    -0.497748   
O26      O      0.510820000000     0.303780000000     0.158280000000    -0.498445   
O27      O      0.329670000000     0.384330000000     0.903900000000    -0.505841   
O28      O      0.253820000000     0.461150000000     0.815260000000    -0.505251   
O29      O      0.253110000000     0.329470000000     0.921690000000    -0.511061   
O30      O      0.273530000000     0.329930000000     0.829500000000    -0.499844   
O31      O      0.323020000000     0.456680000000     0.927900000000    -0.509006   
O32      O      0.174310000000     0.386140000000     0.836220000000    -0.498655   
O33      O      0.259710000000     0.399400000000     0.869310000000    -0.869548   
O34      O      0.201330000000     0.404080000000     0.927110000000    -0.507801   
O35      O      0.175220000000     0.327350000000     0.903260000000    -0.495276   
O36      O      0.327240000000     0.408640000000     0.814190000000    -0.517279   
O37      O      0.200310000000     0.336460000000     0.811080000000    -0.509474   
O38      O      0.274530000000     0.485000000000     0.906650000000    -0.498623   
O39      O      0.329940000000     0.486560000000     0.837280000000    -0.495884   
O40      O      0.417110000000     0.303940000000     0.579780000000    -0.493573   
O41      O      0.485100000000     0.225920000000     0.677900000000    -0.504516   
O42      O      0.365210000000     0.226120000000     0.559870000000    -0.509475   
O43      O      0.357200000000     0.252150000000     0.646170000000    -0.493365   
O44      O      0.491810000000     0.299380000000     0.565660000000    -0.505935   
O45      O      0.409750000000     0.147950000000     0.657020000000    -0.490094   
O46      O      0.428180000000     0.233520000000     0.619480000000    -0.875345   
O47      O      0.432890000000     0.171660000000     0.565150000000    -0.507542   
O48      O      0.357020000000     0.146420000000     0.587020000000    -0.500357   
O49      O      0.431010000000     0.299800000000     0.673670000000    -0.5034     
O50      O      0.361100000000     0.177460000000     0.675950000000    -0.492345   
O51      O      0.512980000000     0.244690000000     0.587440000000    -0.497776   
O52      O      0.510820000000     0.303780000000     0.658280000000    -0.498453   
O53      O      0.329670000000     0.884340000000     0.403900000000    -0.505766   
O54      O      0.253830000000     0.961150000000     0.315260000000    -0.505356   
O55      O      0.253100000000     0.829470000000     0.421690000000    -0.510965   
O56      O      0.273530000000     0.829930000000     0.329500000000    -0.499891   
O57      O      0.323020000000     0.956680000000     0.427890000000    -0.509273   
O58      O      0.174310000000     0.886140000000     0.336220000000    -0.498649   
O59      O      0.259710000000     0.899390000000     0.369310000000    -0.869738   
O60      O      0.201330000000     0.904080000000     0.427100000000    -0.507895   
O61      O      0.175220000000     0.827350000000     0.403260000000    -0.495301   
O62      O      0.327240000000     0.908640000000     0.314190000000    -0.517313   
O63      O      0.200310000000     0.836460000000     0.311080000000    -0.509514   
O64      O      0.274530000000     0.985000000000     0.406650000000    -0.498634   
O65      O      0.329950000000     0.986570000000     0.337280000000    -0.495915   
O66      O      0.417100000000     0.803940000000     0.079780000000    -0.493611   
O67      O      0.485100000000     0.725920000000     0.177900000000    -0.504483   
O68      O      0.365210000000     0.726120000000     0.059860000000    -0.509385   
O69      O      0.357200000000     0.752150000000     0.146170000000    -0.49334    
O70      O      0.491810000000     0.799380000000     0.065660000000    -0.505874   
O71      O      0.409750000000     0.647950000000     0.157020000000    -0.490089   
O72      O      0.428180000000     0.733530000000     0.119480000000    -0.875142   
O73      O      0.432890000000     0.671670000000     0.065150000000    -0.507541   
O74      O      0.357020000000     0.646420000000     0.087020000000    -0.500341   
O75      O      0.431010000000     0.799800000000     0.173670000000    -0.503423   
O76      O      0.361100000000     0.677460000000     0.175950000000    -0.492321   
O77      O      0.512980000000     0.744690000000     0.087450000000    -0.497709   
O78      O      0.510820000000     0.803780000000     0.158280000000    -0.498399   
O79      O      0.329670000000     0.884340000000     0.903900000000    -0.505751   
O80      O      0.253830000000     0.961150000000     0.815260000000    -0.50533    
O81      O      0.253100000000     0.829470000000     0.921690000000    -0.510961   
O82      O      0.273530000000     0.829930000000     0.829500000000    -0.499884   
O83      O      0.323020000000     0.956680000000     0.927900000000    -0.509161   
O84      O      0.174310000000     0.886140000000     0.836220000000    -0.498639   
O85      O      0.259710000000     0.899390000000     0.869310000000    -0.869703   
O86      O      0.201330000000     0.904080000000     0.927110000000    -0.507792   
O87      O      0.175220000000     0.827350000000     0.903260000000    -0.495298   
O88      O      0.327240000000     0.908640000000     0.814190000000    -0.517288   
O89      O      0.200310000000     0.836460000000     0.811080000000    -0.509509   
O90      O      0.274530000000     0.985000000000     0.906650000000    -0.498617   
O91      O      0.329950000000     0.986570000000     0.837280000000    -0.4959     
O92      O      0.417100000000     0.803940000000     0.579780000000    -0.493612   
O93      O      0.485100000000     0.725920000000     0.677900000000    -0.504483   
O94      O      0.365210000000     0.726120000000     0.559870000000    -0.509489   
O95      O      0.357200000000     0.752150000000     0.646170000000    -0.493348   
O96      O      0.491810000000     0.799380000000     0.565660000000    -0.50591    
O97      O      0.409750000000     0.647950000000     0.657020000000    -0.490088   
O98      O      0.428180000000     0.733530000000     0.619480000000    -0.875153   
O99      O      0.432890000000     0.671670000000     0.565150000000    -0.507531   
O100     O      0.357020000000     0.646420000000     0.587020000000    -0.500354   
O101     O      0.431010000000     0.799800000000     0.673670000000    -0.503426   
O102     O      0.361100000000     0.677460000000     0.675950000000    -0.492344   
O103     O      0.512980000000     0.744690000000     0.587440000000    -0.497737   
O104     O      0.510820000000     0.803780000000     0.658280000000    -0.498407   
O105     O      0.829670000000     0.384330000000     0.403900000000    -0.505878   
O106     O      0.753830000000     0.461150000000     0.315260000000    -0.505343   
O107     O      0.753110000000     0.329470000000     0.421690000000    -0.510945   
O108     O      0.773530000000     0.329930000000     0.329500000000    -0.499856   
O109     O      0.823020000000     0.456680000000     0.427890000000    -0.509123   
O110     O      0.674310000000     0.386140000000     0.336220000000    -0.498723   
O111     O      0.759710000000     0.399400000000     0.369310000000    -0.869581   
O112     O      0.701320000000     0.404080000000     0.427100000000    -0.507898   
O113     O      0.675220000000     0.327350000000     0.403260000000    -0.495284   
O114     O      0.827240000000     0.408640000000     0.314190000000    -0.517301   
O115     O      0.700300000000     0.336460000000     0.311080000000    -0.509575   
O116     O      0.774530000000     0.485000000000     0.406650000000    -0.498651   
O117     O      0.829950000000     0.486560000000     0.337280000000    -0.495864   
O118     O      0.917100000000     0.303940000000     0.079780000000    -0.493535   
O119     O      0.985100000000     0.225920000000     0.177900000000    -0.504623   
O120     O      0.865210000000     0.226120000000     0.059860000000    -0.509388   
O121     O      0.857200000000     0.252150000000     0.146170000000    -0.493329   
O122     O      0.991810000000     0.299380000000     0.065660000000    -0.506016   
O123     O      0.909750000000     0.147950000000     0.157020000000    -0.49009    
O124     O      0.928180000000     0.233520000000     0.119480000000    -0.875309   
O125     O      0.932890000000     0.171660000000     0.065150000000    -0.507573   
O126     O      0.857020000000     0.146420000000     0.087020000000    -0.500344   
O127     O      0.931010000000     0.299800000000     0.173670000000    -0.503387   
O128     O      0.861100000000     0.177460000000     0.175950000000    -0.492323   
O129     O      0.012980000000     0.244690000000     0.087450000000    -0.497708   
O130     O      0.010820000000     0.303780000000     0.158280000000    -0.49839    
O131     O      0.829670000000     0.384330000000     0.903900000000    -0.505863   
O132     O      0.753830000000     0.461150000000     0.815260000000    -0.505318   
O133     O      0.753110000000     0.329470000000     0.921690000000    -0.510941   
O134     O      0.773530000000     0.329930000000     0.829500000000    -0.499849   
O135     O      0.823020000000     0.456680000000     0.927900000000    -0.509011   
O136     O      0.674310000000     0.386140000000     0.836220000000    -0.498713   
O137     O      0.759710000000     0.399400000000     0.869310000000    -0.869547   
O138     O      0.701320000000     0.404080000000     0.927110000000    -0.507794   
O139     O      0.675220000000     0.327350000000     0.903260000000    -0.495281   
O140     O      0.827240000000     0.408640000000     0.814190000000    -0.517276   
O141     O      0.700300000000     0.336460000000     0.811080000000    -0.509571   
O142     O      0.774530000000     0.485000000000     0.906650000000    -0.498634   
O143     O      0.829950000000     0.486560000000     0.837280000000    -0.495849   
O144     O      0.917100000000     0.303940000000     0.579780000000    -0.493536   
O145     O      0.985100000000     0.225920000000     0.677900000000    -0.504624   
O146     O      0.865210000000     0.226120000000     0.559870000000    -0.509493   
O147     O      0.857200000000     0.252150000000     0.646170000000    -0.493337   
O148     O      0.991810000000     0.299380000000     0.565660000000    -0.506052   
O149     O      0.909750000000     0.147950000000     0.657020000000    -0.49009    
O150     O      0.928180000000     0.233520000000     0.619480000000    -0.87532    
O151     O      0.932890000000     0.171660000000     0.565150000000    -0.507563   
O152     O      0.857020000000     0.146420000000     0.587020000000    -0.500356   
O153     O      0.931010000000     0.299800000000     0.673670000000    -0.50339    
O154     O      0.861100000000     0.177460000000     0.675950000000    -0.492345   
O155     O      0.012980000000     0.244690000000     0.587440000000    -0.497736   
O156     O      0.010820000000     0.303780000000     0.658280000000    -0.498398   
O157     O      0.829670000000     0.884340000000     0.403900000000    -0.505768   
O158     O      0.753830000000     0.961150000000     0.315260000000    -0.505356   
O159     O      0.753100000000     0.829470000000     0.421690000000    -0.510966   
O160     O      0.773530000000     0.829930000000     0.329500000000    -0.499892   
O161     O      0.823020000000     0.956680000000     0.427890000000    -0.509268   
O162     O      0.674310000000     0.886140000000     0.336220000000    -0.498653   
O163     O      0.759710000000     0.899390000000     0.369310000000    -0.869735   
O164     O      0.701330000000     0.904080000000     0.427100000000    -0.507897   
O165     O      0.675220000000     0.827350000000     0.403260000000    -0.495305   
O166     O      0.827240000000     0.908640000000     0.314190000000    -0.517315   
O167     O      0.700310000000     0.836460000000     0.311080000000    -0.509515   
O168     O      0.774530000000     0.985000000000     0.406650000000    -0.498636   
O169     O      0.829950000000     0.986570000000     0.337280000000    -0.495917   
O170     O      0.917100000000     0.803940000000     0.079780000000    -0.493608   
O171     O      0.985100000000     0.725920000000     0.177900000000    -0.504595   
O172     O      0.865210000000     0.726120000000     0.059860000000    -0.509383   
O173     O      0.857200000000     0.752150000000     0.146170000000    -0.49334    
O174     O      0.991810000000     0.799380000000     0.065660000000    -0.505858   
O175     O      0.909750000000     0.647950000000     0.157020000000    -0.490088   
O176     O      0.928180000000     0.733530000000     0.119480000000    -0.875124   
O177     O      0.932890000000     0.671670000000     0.065150000000    -0.507558   
O178     O      0.857020000000     0.646420000000     0.087020000000    -0.50034    
O179     O      0.931010000000     0.799800000000     0.173670000000    -0.503439   
O180     O      0.861100000000     0.677460000000     0.175950000000    -0.492318   
O181     O      0.012980000000     0.744690000000     0.087450000000    -0.497674   
O182     O      0.010820000000     0.803780000000     0.158280000000    -0.498357   
O183     O      0.829670000000     0.884340000000     0.903900000000    -0.505753   
O184     O      0.753830000000     0.961150000000     0.815260000000    -0.505331   
O185     O      0.753100000000     0.829470000000     0.921690000000    -0.510962   
O186     O      0.773530000000     0.829930000000     0.829500000000    -0.499885   
O187     O      0.823020000000     0.956680000000     0.927900000000    -0.509155   
O188     O      0.674310000000     0.886140000000     0.836220000000    -0.498643   
O189     O      0.759710000000     0.899390000000     0.869310000000    -0.8697     
O190     O      0.701330000000     0.904080000000     0.927110000000    -0.507793   
O191     O      0.675220000000     0.827350000000     0.903260000000    -0.495302   
O192     O      0.827240000000     0.908640000000     0.814190000000    -0.51729    
O193     O      0.700310000000     0.836460000000     0.811080000000    -0.50951    
O194     O      0.774530000000     0.985000000000     0.906650000000    -0.498618   
O195     O      0.829950000000     0.986570000000     0.837280000000    -0.495902   
O196     O      0.917100000000     0.803940000000     0.579780000000    -0.493609   
O197     O      0.985100000000     0.725920000000     0.677900000000    -0.504596   
O198     O      0.865210000000     0.726120000000     0.559870000000    -0.509488   
O199     O      0.857200000000     0.752150000000     0.646170000000    -0.493349   
O200     O      0.991810000000     0.799380000000     0.565660000000    -0.505894   
O201     O      0.909750000000     0.647950000000     0.657020000000    -0.490087   
O202     O      0.928180000000     0.733530000000     0.619480000000    -0.875135   
O203     O      0.932890000000     0.671670000000     0.565150000000    -0.507548   
O204     O      0.857020000000     0.646420000000     0.587020000000    -0.500353   
O205     O      0.931010000000     0.799800000000     0.673670000000    -0.503442   
O206     O      0.861100000000     0.677460000000     0.675950000000    -0.49234    
O207     O      0.012980000000     0.744690000000     0.587440000000    -0.497702   
O208     O      0.010820000000     0.803780000000     0.658280000000    -0.498365   


