data_structure

_audit_creation_method RASPA-1.0
_audit_creation_date 2023-6-4
_audit_author_name 'Poobodin Mano'

_cell_length_a    29.9135
_cell_length_b    29.0249
_cell_length_c    30.2985
_cell_angle_alpha 90
_cell_angle_beta  90
_cell_angle_gamma 120
_cell_volume      22781.9

_symmetry_cell_setting          triclinic
_symmetry_space_group_name_Hall 'P 1'
_symmetry_space_group_name_H-M  'P 1'
_symmetry_Int_Tables_number     1

_symmetry_equiv_pos_as_xyz 'x,y,z'

loop_
_atom_site_label
_atom_site_type_symbol
_atom_site_fract_x
_atom_site_fract_y
_atom_site_fract_z
_atom_site_charge
C1       C      0.205780000000     0.383630000000     0.399040000000     0.543007   
C2       C      0.199600000000     0.376710000000     0.281040000000     0.546609   
C3       C      0.339680000000     0.390210000000     0.271800000000     0.537556   
C4       C      0.341410000000     0.519160000000     0.397280000000     0.531751   
C5       C      0.331200000000     0.523760000000     0.278510000000     0.539517   
C6       C      0.342890000000     0.381890000000     0.390120000000     0.534368   
C7       C      0.421730000000     0.172050000000     0.032150000000     0.520374   
C8       C      0.412140000000     0.179570000000     0.150700000000     0.515731   
C9       C      0.420330000000     0.322740000000     0.138870000000     0.528963   
C10      C      0.560830000000     0.315460000000     0.034870000000     0.528859   
C11      C      0.548980000000     0.306660000000     0.153140000000     0.528623   
C12      C      0.422920000000     0.308230000000     0.022320000000     0.519228   
C13      C      0.622620000000     0.389000000000     0.487130000000    -0.00625113 
C14      C      0.132750000000     0.309810000000     0.000930000000    -0.0309888  
C15      C      0.639050000000     0.390650000000     0.439190000000    -0.00720902 
C16      C      0.149920000000     0.310760000000     0.952850000000     0.0958102  
C17      C      0.600640000000     0.376610000000     0.208170000000    -0.0054401  
C18      C      0.581920000000     0.283260000000     0.219260000000    -0.0302769  
C19      C      0.156600000000     0.397890000000     0.222560000000    -0.00828753 
C20      C      0.138920000000     0.303310000000     0.231360000000     0.098132   
C21      C      0.427700000000     0.129530000000     0.208610000000    -0.0076721  
C22      C      0.348540000000     0.138380000000     0.211200000000    -0.0298282  
C23      C      0.395660000000     0.570960000000     0.221140000000    -0.00490333 
C24      C      0.315190000000     0.578560000000     0.223380000000     0.0963295  
C25      C      0.434670000000     0.124660000000     0.969820000000    -0.00713277 
C26      C      0.345250000000     0.102000000000     0.995760000000    -0.0309527  
C27      C      0.406580000000     0.566400000000     0.454800000000    -0.0092661  
C28      C      0.326730000000     0.576780000000     0.450030000000     0.0932882  
C29      C      0.361870000000     0.288800000000     0.960630000000    -0.00763735 
C30      C      0.435510000000     0.382370000000     0.975220000000    -0.0289461  
C31      C      0.331980000000     0.316700000000     0.447170000000    -0.00879871 
C32      C      0.421700000000     0.393230000000     0.428400000000     0.0957225  
C33      C      0.432470000000     0.398020000000     0.185900000000    -0.0065601  
C34      C      0.344200000000     0.323250000000     0.168300000000    -0.0306336  
C35      C      0.414870000000     0.400250000000     0.232940000000    -0.00856072 
C36      C      0.326940000000     0.320590000000     0.216150000000     0.0948405  
C37      C      0.205780000000     0.383630000000     0.899040000000     0.543011   
C38      C      0.199600000000     0.376710000000     0.781040000000     0.546614   
C39      C      0.339680000000     0.390210000000     0.771800000000     0.537723   
C40      C      0.341410000000     0.519160000000     0.897280000000     0.531785   
C41      C      0.331200000000     0.523760000000     0.778510000000     0.539535   
C42      C      0.342890000000     0.381890000000     0.890120000000     0.534411   
C43      C      0.421730000000     0.172050000000     0.532150000000     0.520581   
C44      C      0.412140000000     0.179570000000     0.650700000000     0.515725   
C45      C      0.420330000000     0.322740000000     0.638870000000     0.528961   
C46      C      0.560830000000     0.315460000000     0.534870000000     0.528984   
C47      C      0.548980000000     0.306660000000     0.653140000000     0.528617   
C48      C      0.422920000000     0.308230000000     0.522320000000     0.519303   
C49      C      0.622620000000     0.389000000000     0.987130000000    -0.00608315 
C50      C      0.132750000000     0.309810000000     0.500930000000    -0.0309009  
C51      C      0.639050000000     0.390650000000     0.939190000000    -0.00723206 
C52      C      0.149920000000     0.310760000000     0.452850000000     0.0957381  
C53      C      0.600640000000     0.376610000000     0.708170000000    -0.00545191 
C54      C      0.581920000000     0.283260000000     0.719260000000    -0.0302788  
C55      C      0.156600000000     0.397890000000     0.722560000000    -0.00825902 
C56      C      0.138920000000     0.303310000000     0.731360000000     0.0981327  
C57      C      0.427700000000     0.129530000000     0.708610000000    -0.0076622  
C58      C      0.348540000000     0.138380000000     0.711200000000    -0.029805   
C59      C      0.395660000000     0.570960000000     0.721140000000    -0.00492872 
C60      C      0.315190000000     0.578560000000     0.723380000000     0.0963227  
C61      C      0.434670000000     0.124660000000     0.469810000000    -0.00717961 
C62      C      0.345250000000     0.102000000000     0.495760000000    -0.0311548  
C63      C      0.406580000000     0.566400000000     0.954800000000    -0.00929048 
C64      C      0.326730000000     0.576780000000     0.950030000000     0.0932482  
C65      C      0.361870000000     0.288800000000     0.460630000000    -0.00766908 
C66      C      0.435510000000     0.382370000000     0.475220000000    -0.0290457  
C67      C      0.331980000000     0.316700000000     0.947170000000    -0.00881076 
C68      C      0.421700000000     0.393230000000     0.928400000000     0.0957053  
C69      C      0.432470000000     0.398020000000     0.685900000000    -0.00656299 
C70      C      0.344200000000     0.323250000000     0.668300000000    -0.0306383  
C71      C      0.414870000000     0.400250000000     0.732940000000    -0.00855413 
C72      C      0.326940000000     0.320590000000     0.716150000000     0.0948508  
C73      C      0.205780000000     0.883640000000     0.399040000000     0.543011   
C74      C      0.199600000000     0.876710000000     0.281040000000     0.546603   
C75      C      0.339680000000     0.890200000000     0.271800000000     0.537505   
C76      C      0.341410000000     0.019160000000     0.397280000000     0.531879   
C77      C      0.331200000000     0.023760000000     0.278510000000     0.539631   
C78      C      0.342890000000     0.881890000000     0.390120000000     0.534301   
C79      C      0.421720000000     0.672050000000     0.032150000000     0.520372   
C80      C      0.412140000000     0.679570000000     0.150700000000     0.515527   
C81      C      0.420330000000     0.822740000000     0.138870000000     0.528963   
C82      C      0.560830000000     0.815460000000     0.034870000000     0.528854   
C83      C      0.548970000000     0.806660000000     0.153140000000     0.52868    
C84      C      0.422920000000     0.808230000000     0.022320000000     0.519281   
C85      C      0.622620000000     0.889000000000     0.487130000000    -0.00624805 
C86      C      0.132750000000     0.809810000000     0.000930000000    -0.0310254  
C87      C      0.639050000000     0.890650000000     0.439190000000    -0.00721535 
C88      C      0.149920000000     0.810760000000     0.952850000000     0.0958294  
C89      C      0.600640000000     0.876610000000     0.208170000000    -0.00545786 
C90      C      0.581920000000     0.783260000000     0.219260000000    -0.0302367  
C91      C      0.156600000000     0.897890000000     0.222560000000    -0.00828263 
C92      C      0.138920000000     0.803310000000     0.231360000000     0.0981207  
C93      C      0.427700000000     0.629530000000     0.208610000000    -0.00773995 
C94      C      0.348540000000     0.638380000000     0.211200000000    -0.0298405  
C95      C      0.395670000000     0.070950000000     0.221140000000    -0.0050481  
C96      C      0.315190000000     0.078560000000     0.223380000000     0.0963342  
C97      C      0.434670000000     0.624660000000     0.969820000000    -0.00714272 
C98      C      0.345250000000     0.602000000000     0.995760000000    -0.030956   
C99      C      0.406580000000     0.066400000000     0.454800000000    -0.00927635 
C100     C      0.326730000000     0.076780000000     0.450030000000     0.0933069  
C101     C      0.361870000000     0.788800000000     0.960630000000    -0.00763032 
C102     C      0.435510000000     0.882370000000     0.975220000000    -0.028959   
C103     C      0.331980000000     0.816700000000     0.447170000000    -0.00881016 
C104     C      0.421700000000     0.893230000000     0.428400000000     0.0957395  
C105     C      0.432480000000     0.898030000000     0.185900000000    -0.00665963 
C106     C      0.344200000000     0.823250000000     0.168300000000    -0.0306412  
C107     C      0.414870000000     0.900250000000     0.232940000000    -0.00849792 
C108     C      0.326940000000     0.820590000000     0.216150000000     0.0948613  
C109     C      0.205780000000     0.883640000000     0.899040000000     0.543016   
C110     C      0.199600000000     0.876710000000     0.781040000000     0.546607   
C111     C      0.339680000000     0.890200000000     0.771800000000     0.537672   
C112     C      0.341410000000     0.019160000000     0.897280000000     0.531913   
C113     C      0.331200000000     0.023760000000     0.778510000000     0.53965    
C114     C      0.342890000000     0.881890000000     0.890120000000     0.534344   
C115     C      0.421720000000     0.672050000000     0.532150000000     0.520579   
C116     C      0.412140000000     0.679570000000     0.650700000000     0.51552    
C117     C      0.420330000000     0.822740000000     0.638870000000     0.528962   
C118     C      0.560830000000     0.815460000000     0.534870000000     0.528979   
C119     C      0.548970000000     0.806660000000     0.653140000000     0.528674   
C120     C      0.422920000000     0.808230000000     0.522320000000     0.519357   
C121     C      0.622620000000     0.889000000000     0.987130000000    -0.00608014 
C122     C      0.132750000000     0.809810000000     0.500930000000    -0.0309375  
C123     C      0.639050000000     0.890650000000     0.939190000000    -0.00723838 
C124     C      0.149920000000     0.810760000000     0.452850000000     0.0957574  
C125     C      0.600640000000     0.876610000000     0.708170000000    -0.00546967 
C126     C      0.581920000000     0.783260000000     0.719260000000    -0.0302386  
C127     C      0.156600000000     0.897890000000     0.722560000000    -0.00825413 
C128     C      0.138920000000     0.803310000000     0.731360000000     0.0981214  
C129     C      0.427700000000     0.629530000000     0.708610000000    -0.00773006 
C130     C      0.348540000000     0.638380000000     0.711200000000    -0.0298172  
C131     C      0.395670000000     0.070950000000     0.721140000000    -0.00507355 
C132     C      0.315190000000     0.078560000000     0.723380000000     0.0963274  
C133     C      0.434670000000     0.624660000000     0.469810000000    -0.00718954 
C134     C      0.345250000000     0.602000000000     0.495760000000    -0.0311581  
C135     C      0.406580000000     0.066400000000     0.954800000000    -0.00930073 
C136     C      0.326730000000     0.076780000000     0.950030000000     0.093267   
C137     C      0.361870000000     0.788800000000     0.460630000000    -0.00766205 
C138     C      0.435510000000     0.882370000000     0.475220000000    -0.0290584  
C139     C      0.331980000000     0.816700000000     0.947170000000    -0.00882222 
C140     C      0.421700000000     0.893230000000     0.928400000000     0.0957223  
C141     C      0.432480000000     0.898030000000     0.685900000000    -0.00666251 
C142     C      0.344200000000     0.823250000000     0.668300000000    -0.0306459  
C143     C      0.414870000000     0.900250000000     0.732940000000    -0.00849133 
C144     C      0.326940000000     0.820590000000     0.716150000000     0.0948716  
C145     C      0.705780000000     0.383630000000     0.399040000000     0.542939   
C146     C      0.699600000000     0.376710000000     0.281040000000     0.546537   
C147     C      0.839680000000     0.390210000000     0.271800000000     0.537557   
C148     C      0.841410000000     0.519160000000     0.397280000000     0.53173    
C149     C      0.831200000000     0.523760000000     0.278510000000     0.539515   
C150     C      0.842890000000     0.381890000000     0.390120000000     0.534305   
C151     C      0.921720000000     0.172050000000     0.032150000000     0.520304   
C152     C      0.912140000000     0.179570000000     0.150700000000     0.515491   
C153     C      0.920330000000     0.322740000000     0.138870000000     0.528876   
C154     C      0.060830000000     0.315460000000     0.034870000000     0.528463   
C155     C      0.048980000000     0.306660000000     0.153140000000     0.528258   
C156     C      0.922920000000     0.308230000000     0.022320000000     0.518964   
C157     C      0.122630000000     0.389000000000     0.487130000000    -0.00622904 
C158     C      0.632750000000     0.309810000000     0.000930000000    -0.0309823  
C159     C      0.139050000000     0.390650000000     0.439190000000    -0.00722445 
C160     C      0.649920000000     0.310760000000     0.952850000000     0.0957933  
C161     C      0.100640000000     0.376610000000     0.208170000000    -0.00550651 
C162     C      0.081920000000     0.283260000000     0.219260000000    -0.0303712  
C163     C      0.656600000000     0.397890000000     0.222560000000    -0.0083448  
C164     C      0.638920000000     0.303310000000     0.231360000000     0.0980783  
C165     C      0.927700000000     0.129530000000     0.208610000000    -0.00768084 
C166     C      0.848540000000     0.138380000000     0.211200000000    -0.0298216  
C167     C      0.895670000000     0.570960000000     0.221140000000    -0.00500871 
C168     C      0.815190000000     0.578560000000     0.223380000000     0.0963183  
C169     C      0.934670000000     0.124660000000     0.969820000000    -0.00711991 
C170     C      0.845250000000     0.102000000000     0.995760000000    -0.0309619  
C171     C      0.906580000000     0.566400000000     0.454800000000    -0.00929077 
C172     C      0.826730000000     0.576780000000     0.450030000000     0.0932844  
C173     C      0.861870000000     0.288800000000     0.960630000000    -0.00762872 
C174     C      0.935510000000     0.382370000000     0.975220000000    -0.028936   
C175     C      0.831980000000     0.316700000000     0.447170000000    -0.00881242 
C176     C      0.921700000000     0.393230000000     0.428400000000     0.0957223  
C177     C      0.932480000000     0.398020000000     0.185900000000    -0.0065895  
C178     C      0.844200000000     0.323250000000     0.168300000000    -0.030636   
C179     C      0.914870000000     0.400250000000     0.232940000000    -0.00853983 
C180     C      0.826940000000     0.320590000000     0.216150000000     0.0948397  
C181     C      0.705780000000     0.383630000000     0.899040000000     0.542944   
C182     C      0.699600000000     0.376710000000     0.781040000000     0.546541   
C183     C      0.839680000000     0.390210000000     0.771800000000     0.537724   
C184     C      0.841410000000     0.519160000000     0.897280000000     0.531764   
C185     C      0.831200000000     0.523760000000     0.778510000000     0.539534   
C186     C      0.842890000000     0.381890000000     0.890120000000     0.534349   
C187     C      0.921720000000     0.172050000000     0.532150000000     0.52051    
C188     C      0.912140000000     0.179570000000     0.650700000000     0.515484   
C189     C      0.920330000000     0.322740000000     0.638870000000     0.528875   
C190     C      0.060830000000     0.315460000000     0.534870000000     0.528588   
C191     C      0.048980000000     0.306660000000     0.653140000000     0.528252   
C192     C      0.922920000000     0.308230000000     0.522320000000     0.51904    
C193     C      0.122630000000     0.389000000000     0.987130000000    -0.00606129 
C194     C      0.632750000000     0.309810000000     0.500930000000    -0.0308942  
C195     C      0.139050000000     0.390650000000     0.939190000000    -0.00724745 
C196     C      0.649920000000     0.310760000000     0.452850000000     0.0957212  
C197     C      0.100640000000     0.376610000000     0.708170000000    -0.00551831 
C198     C      0.081920000000     0.283260000000     0.719260000000    -0.0303731  
C199     C      0.656600000000     0.397890000000     0.722560000000    -0.00831628 
C200     C      0.638920000000     0.303310000000     0.731360000000     0.098079   
C201     C      0.927700000000     0.129530000000     0.708610000000    -0.00767096 
C202     C      0.848540000000     0.138380000000     0.711200000000    -0.0297983  
C203     C      0.895670000000     0.570960000000     0.721140000000    -0.00503412 
C204     C      0.815190000000     0.578560000000     0.723380000000     0.0963115  
C205     C      0.934670000000     0.124660000000     0.469810000000    -0.00716674 
C206     C      0.845250000000     0.102000000000     0.495760000000    -0.0311642  
C207     C      0.906580000000     0.566400000000     0.954800000000    -0.00931514 
C208     C      0.826730000000     0.576780000000     0.950030000000     0.0932444  
C209     C      0.861870000000     0.288800000000     0.460630000000    -0.00766041 
C210     C      0.935510000000     0.382370000000     0.475220000000    -0.0290356  
C211     C      0.831980000000     0.316700000000     0.947170000000    -0.00882447 
C212     C      0.921700000000     0.393230000000     0.928400000000     0.095705   
C213     C      0.932480000000     0.398020000000     0.685900000000    -0.00659238 
C214     C      0.844200000000     0.323250000000     0.668300000000    -0.0306406  
C215     C      0.914870000000     0.400250000000     0.732940000000    -0.00853324 
C216     C      0.826940000000     0.320590000000     0.716150000000     0.09485    
C217     C      0.705780000000     0.883640000000     0.399040000000     0.543      
C218     C      0.699600000000     0.876710000000     0.281040000000     0.546596   
C219     C      0.839680000000     0.890200000000     0.271800000000     0.537504   
C220     C      0.841410000000     0.019160000000     0.397280000000     0.531862   
C221     C      0.831200000000     0.023760000000     0.278510000000     0.539636   
C222     C      0.842880000000     0.881890000000     0.390120000000     0.534371   
C223     C      0.921720000000     0.672050000000     0.032150000000     0.520303   
C224     C      0.912140000000     0.679570000000     0.150700000000     0.515288   
C225     C      0.920330000000     0.822740000000     0.138870000000     0.528802   
C226     C      0.060840000000     0.815460000000     0.034870000000     0.528381   
C227     C      0.048970000000     0.806660000000     0.153140000000     0.528315   
C228     C      0.922920000000     0.808230000000     0.022320000000     0.519016   
C229     C      0.122620000000     0.889000000000     0.487130000000    -0.00624146 
C230     C      0.632750000000     0.809810000000     0.000930000000    -0.0310195  
C231     C      0.139050000000     0.890650000000     0.439190000000    -0.00722466 
C232     C      0.649920000000     0.810760000000     0.952850000000     0.0958123  
C233     C      0.100640000000     0.876610000000     0.208170000000    -0.00551559 
C234     C      0.081920000000     0.783260000000     0.219260000000    -0.0303347  
C235     C      0.656600000000     0.897890000000     0.222560000000    -0.00831461 
C236     C      0.638920000000     0.803310000000     0.231360000000     0.0980539  
C237     C      0.927700000000     0.629530000000     0.208610000000    -0.00767657 
C238     C      0.848540000000     0.638380000000     0.211200000000    -0.0298285  
C239     C      0.895660000000     0.070950000000     0.221140000000    -0.00498347 
C240     C      0.815190000000     0.078560000000     0.223380000000     0.0963273  
C241     C      0.934670000000     0.624660000000     0.969820000000    -0.00710652 
C242     C      0.845250000000     0.602000000000     0.995760000000    -0.0309551  
C243     C      0.906580000000     0.066400000000     0.454800000000    -0.00928267 
C244     C      0.826730000000     0.076780000000     0.450030000000     0.0933081  
C245     C      0.861870000000     0.788800000000     0.960630000000    -0.0076241  
C246     C      0.935510000000     0.882370000000     0.975220000000    -0.0289018  
C247     C      0.831980000000     0.816700000000     0.447170000000    -0.00882552 
C248     C      0.921700000000     0.893230000000     0.428400000000     0.0957003  
C249     C      0.932480000000     0.898030000000     0.185900000000    -0.00669023 
C250     C      0.844190000000     0.823250000000     0.168300000000    -0.0306918  
C251     C      0.914870000000     0.900250000000     0.232940000000    -0.00847813 
C252     C      0.826940000000     0.820590000000     0.216150000000     0.0948811  
C253     C      0.705780000000     0.883640000000     0.899040000000     0.543005   
C254     C      0.699600000000     0.876710000000     0.781040000000     0.5466     
C255     C      0.839680000000     0.890200000000     0.771800000000     0.53767    
C256     C      0.841410000000     0.019160000000     0.897280000000     0.531896   
C257     C      0.831200000000     0.023760000000     0.778510000000     0.539655   
C258     C      0.842880000000     0.881890000000     0.890120000000     0.534414   
C259     C      0.921720000000     0.672050000000     0.532150000000     0.52051    
C260     C      0.912140000000     0.679570000000     0.650700000000     0.515281   
C261     C      0.920330000000     0.822740000000     0.638870000000     0.528801   
C262     C      0.060840000000     0.815460000000     0.534870000000     0.528506   
C263     C      0.048970000000     0.806660000000     0.653140000000     0.528309   
C264     C      0.922920000000     0.808230000000     0.522320000000     0.519092   
C265     C      0.122620000000     0.889000000000     0.987130000000    -0.00607382 
C266     C      0.632750000000     0.809810000000     0.500930000000    -0.0309315  
C267     C      0.139050000000     0.890650000000     0.939190000000    -0.00724761 
C268     C      0.649920000000     0.810760000000     0.452850000000     0.0957401  
C269     C      0.100640000000     0.876610000000     0.708170000000    -0.00552739 
C270     C      0.081920000000     0.783260000000     0.719260000000    -0.0303366  
C271     C      0.656600000000     0.897890000000     0.722560000000    -0.0082861  
C272     C      0.638920000000     0.803310000000     0.731360000000     0.0980546  
C273     C      0.927700000000     0.629530000000     0.708610000000    -0.00766668 
C274     C      0.848540000000     0.638380000000     0.711200000000    -0.0298052  
C275     C      0.895660000000     0.070950000000     0.721140000000    -0.00500888 
C276     C      0.815190000000     0.078560000000     0.723380000000     0.0963206  
C277     C      0.934670000000     0.624660000000     0.469810000000    -0.00715334 
C278     C      0.845250000000     0.602000000000     0.495760000000    -0.0311575  
C279     C      0.906580000000     0.066400000000     0.954800000000    -0.00930704 
C280     C      0.826730000000     0.076780000000     0.950030000000     0.0932681  
C281     C      0.861870000000     0.788800000000     0.460630000000    -0.00765579 
C282     C      0.935510000000     0.882370000000     0.475220000000    -0.0290014  
C283     C      0.831980000000     0.816700000000     0.947170000000    -0.00883756 
C284     C      0.921700000000     0.893230000000     0.928400000000     0.0956831  
C285     C      0.932480000000     0.898030000000     0.685900000000    -0.00669312 
C286     C      0.844190000000     0.823250000000     0.668300000000    -0.0306965  
C287     C      0.914870000000     0.900250000000     0.732940000000    -0.00847154 
C288     C      0.826940000000     0.820590000000     0.716150000000     0.0948914  
Fe1      Fe     0.263010000000     0.362650000000     0.336730000000     1.38507    
Fe2      Fe     0.357820000000     0.464130000000     0.333640000000     1.3628     
Fe3      Fe     0.259830000000     0.461370000000     0.338320000000     1.38084    
Fe4      Fe     0.400700000000     0.235850000000     0.086150000000     1.36726    
Fe5      Fe     0.498820000000     0.334080000000     0.088190000000     1.35425    
Fe6      Fe     0.494620000000     0.231620000000     0.091190000000     1.35647    
Fe7      Fe     0.263010000000     0.362650000000     0.836730000000     1.38514    
Fe8      Fe     0.357820000000     0.464130000000     0.833630000000     1.36281    
Fe9      Fe     0.259830000000     0.461370000000     0.838320000000     1.38084    
Fe10     Fe     0.400700000000     0.235850000000     0.586150000000     1.36724    
Fe11     Fe     0.498820000000     0.334080000000     0.588190000000     1.35426    
Fe12     Fe     0.494620000000     0.231620000000     0.591190000000     1.35644    
Fe13     Fe     0.263010000000     0.862650000000     0.336730000000     1.38505    
Fe14     Fe     0.357820000000     0.964130000000     0.333640000000     1.3627     
Fe15     Fe     0.259830000000     0.961370000000     0.338320000000     1.38077    
Fe16     Fe     0.400700000000     0.735850000000     0.086150000000     1.36728    
Fe17     Fe     0.498820000000     0.834080000000     0.088190000000     1.35425    
Fe18     Fe     0.494620000000     0.731620000000     0.091190000000     1.35645    
Fe19     Fe     0.263010000000     0.862650000000     0.836730000000     1.38513    
Fe20     Fe     0.357820000000     0.964130000000     0.833630000000     1.36271    
Fe21     Fe     0.259830000000     0.961370000000     0.838320000000     1.38078    
Fe22     Fe     0.400700000000     0.735850000000     0.586150000000     1.36726    
Fe23     Fe     0.498820000000     0.834080000000     0.588190000000     1.35426    
Fe24     Fe     0.494620000000     0.731620000000     0.591190000000     1.35641    
Fe25     Fe     0.763010000000     0.362650000000     0.336730000000     1.38512    
Fe26     Fe     0.857820000000     0.464130000000     0.333640000000     1.36271    
Fe27     Fe     0.759830000000     0.461370000000     0.338320000000     1.38071    
Fe28     Fe     0.900700000000     0.235850000000     0.086150000000     1.36716    
Fe29     Fe     0.998830000000     0.334080000000     0.088190000000     1.35183    
Fe30     Fe     0.994620000000     0.231620000000     0.091190000000     1.35401    
Fe31     Fe     0.763010000000     0.362650000000     0.836730000000     1.38519    
Fe32     Fe     0.857820000000     0.464130000000     0.833630000000     1.36273    
Fe33     Fe     0.759830000000     0.461370000000     0.838320000000     1.38071    
Fe34     Fe     0.900700000000     0.235850000000     0.586150000000     1.36714    
Fe35     Fe     0.998830000000     0.334080000000     0.588190000000     1.35184    
Fe36     Fe     0.994620000000     0.231620000000     0.591190000000     1.35398    
Fe37     Fe     0.763010000000     0.862650000000     0.336730000000     1.38506    
Fe38     Fe     0.857820000000     0.964130000000     0.333640000000     1.36261    
Fe39     Fe     0.759830000000     0.961370000000     0.338320000000     1.38074    
Fe40     Fe     0.900700000000     0.735850000000     0.086150000000     1.36716    
Fe41     Fe     0.998830000000     0.834080000000     0.088190000000     1.35181    
Fe42     Fe     0.994620000000     0.731620000000     0.091190000000     1.35401    
Fe43     Fe     0.763010000000     0.862650000000     0.836730000000     1.38513    
Fe44     Fe     0.857820000000     0.964130000000     0.833630000000     1.36263    
Fe45     Fe     0.759830000000     0.961370000000     0.838320000000     1.38074    
Fe46     Fe     0.900700000000     0.735850000000     0.586150000000     1.36714    
Fe47     Fe     0.998830000000     0.834080000000     0.588190000000     1.35182    
Fe48     Fe     0.994620000000     0.731620000000     0.591190000000     1.35397    
H1       H      0.603500000000     0.369260000000     0.418810000000     0.0475681  
H2       H      0.594770000000     0.403740000000     0.488780000000     0.0497519  
H3       H      0.115000000000     0.282050000000     0.933970000000     0.0426428  
H4       H      0.111750000000     0.267710000000     0.012330000000     0.0606261  
H5       H      0.659390000000     0.432740000000     0.427930000000     0.0624002  
H6       H      0.657260000000     0.416880000000     0.506570000000     0.0546114  
H7       H      0.167540000000     0.331600000000     0.022170000000     0.0661371  
H8       H      0.180720000000     0.407610000000     0.192310000000     0.051177   
H9       H      0.599170000000     0.404540000000     0.183890000000     0.0481939  
H10      H      0.159170000000     0.304210000000     0.200260000000     0.0495021  
H11      H      0.565460000000     0.243530000000     0.203400000000     0.0668456  
H12      H      0.170160000000     0.435840000000     0.240850000000     0.0580769  
H13      H      0.578080000000     0.375830000000     0.237620000000     0.047453   
H14      H      0.559330000000     0.278410000000     0.249780000000     0.0664683  
H15      H      0.385000000000     0.547130000000     0.190220000000     0.0461737  
H16      H      0.460510000000     0.135450000000     0.187420000000     0.0478538  
H17      H      0.300260000000     0.556280000000     0.191850000000     0.0365209  
H18      H      0.324970000000     0.150570000000     0.191260000000     0.067041   
H19      H      0.420090000000     0.559580000000     0.240770000000     0.0483951  
H20      H      0.444320000000     0.152850000000     0.239370000000     0.04969    
H21      H      0.360720000000     0.162860000000     0.241760000000     0.0698576  
H22      H      0.432710000000     0.060910000000     0.432040000000     0.0611731  
H23      H      0.444650000000     0.150910000000     0.940420000000     0.050273   
H24      H      0.332720000000     0.109120000000     0.426750000000     0.0431275  
H25      H      0.326310000000     0.125750000000     0.003480000000     0.0579516  
H26      H      0.399240000000     0.540400000000     0.484020000000     0.0618378  
H27      H      0.471410000000     0.633860000000     0.986360000000     0.0481043  
H28      H      0.331980000000     0.570140000000     0.021200000000     0.0650235  
H29      H      0.297280000000     0.288280000000     0.428030000000     0.0609403  
H30      H      0.374160000000     0.276310000000     0.930450000000     0.048941   
H31      H      0.437590000000     0.376370000000     0.404080000000     0.0372845  
H32      H      0.477900000000     0.398340000000     0.477470000000     0.0648704  
H33      H      0.318550000000     0.327580000000     0.977540000000     0.0643716  
H34      H      0.335680000000     0.252290000000     0.979600000000     0.0477217  
H35      H      0.425620000000     0.403480000000     0.000610000000     0.070026   
H36      H      0.429270000000     0.379950000000     0.255100000000     0.0456424  
H37      H      0.473980000000     0.409650000000     0.186480000000     0.0451826  
H38      H      0.334440000000     0.291300000000     0.233590000000     0.0423981  
H39      H      0.322390000000     0.282560000000     0.153940000000     0.0621069  
H40      H      0.434070000000     0.442590000000     0.243590000000     0.0444081  
H41      H      0.428950000000     0.428030000000     0.165680000000     0.0426498  
H42      H      0.334000000000     0.349410000000     0.149100000000     0.0639926  
H43      H      0.603500000000     0.369260000000     0.918810000000     0.0475764  
H44      H      0.594770000000     0.403740000000     0.988780000000     0.0497481  
H45      H      0.115000000000     0.282050000000     0.433970000000     0.0426451  
H46      H      0.111750000000     0.267710000000     0.512330000000     0.0606384  
H47      H      0.659390000000     0.432740000000     0.927920000000     0.0624107  
H48      H      0.657260000000     0.416880000000     0.006570000000     0.0545169  
H49      H      0.167540000000     0.331600000000     0.522170000000     0.0661427  
H50      H      0.180720000000     0.407610000000     0.692300000000     0.0511674  
H51      H      0.599170000000     0.404540000000     0.683890000000     0.0481981  
H52      H      0.159170000000     0.304210000000     0.700260000000     0.0495031  
H53      H      0.565460000000     0.243530000000     0.703400000000     0.0668467  
H54      H      0.170160000000     0.435840000000     0.740850000000     0.0580708  
H55      H      0.578080000000     0.375830000000     0.737620000000     0.0474552  
H56      H      0.559330000000     0.278410000000     0.749780000000     0.0664687  
H57      H      0.385000000000     0.547130000000     0.690230000000     0.0461864  
H58      H      0.460510000000     0.135450000000     0.687420000000     0.0478544  
H59      H      0.300260000000     0.556280000000     0.691850000000     0.0365237  
H60      H      0.324970000000     0.150570000000     0.691250000000     0.0670335  
H61      H      0.420090000000     0.559580000000     0.740770000000     0.0484013  
H62      H      0.444320000000     0.152850000000     0.739370000000     0.0496884  
H63      H      0.360720000000     0.162860000000     0.741760000000     0.0698546  
H64      H      0.432710000000     0.060910000000     0.932040000000     0.0611836  
H65      H      0.444650000000     0.150910000000     0.440420000000     0.0502774  
H66      H      0.332720000000     0.109120000000     0.926750000000     0.0431463  
H67      H      0.326310000000     0.125750000000     0.503480000000     0.0580625  
H68      H      0.399240000000     0.540400000000     0.984020000000     0.0618603  
H69      H      0.471410000000     0.633860000000     0.486360000000     0.0480895  
H70      H      0.331980000000     0.570140000000     0.521200000000     0.0651278  
H71      H      0.297280000000     0.288280000000     0.928030000000     0.0609457  
H72      H      0.374160000000     0.276310000000     0.430460000000     0.0489479  
H73      H      0.437590000000     0.376370000000     0.904070000000     0.0372919  
H74      H      0.477900000000     0.398340000000     0.977460000000     0.0648743  
H75      H      0.318550000000     0.327580000000     0.477540000000     0.0643522  
H76      H      0.335680000000     0.252290000000     0.479600000000     0.0477014  
H77      H      0.425620000000     0.403480000000     0.500610000000     0.0701147  
H78      H      0.429270000000     0.379950000000     0.755100000000     0.0456379  
H79      H      0.473980000000     0.409650000000     0.686480000000     0.0451852  
H80      H      0.334440000000     0.291300000000     0.733590000000     0.0423964  
H81      H      0.322390000000     0.282560000000     0.653940000000     0.0621126  
H82      H      0.434070000000     0.442590000000     0.743590000000     0.0444058  
H83      H      0.428950000000     0.428030000000     0.665680000000     0.042656   
H84      H      0.334000000000     0.349410000000     0.649100000000     0.0640004  
H85      H      0.603500000000     0.869260000000     0.418810000000     0.0475636  
H86      H      0.594770000000     0.903740000000     0.488780000000     0.0497406  
H87      H      0.115000000000     0.782050000000     0.933970000000     0.0426387  
H88      H      0.111750000000     0.767720000000     0.012330000000     0.0606386  
H89      H      0.659390000000     0.932740000000     0.427930000000     0.0623789  
H90      H      0.657260000000     0.916880000000     0.506570000000     0.0545973  
H91      H      0.167540000000     0.831600000000     0.022170000000     0.0661396  
H92      H      0.180720000000     0.907610000000     0.192310000000     0.0511624  
H93      H      0.599170000000     0.904540000000     0.183890000000     0.0481838  
H94      H      0.159170000000     0.804210000000     0.200260000000     0.0495047  
H95      H      0.565450000000     0.743520000000     0.203400000000     0.0668327  
H96      H      0.170160000000     0.935840000000     0.240850000000     0.0580555  
H97      H      0.578080000000     0.875830000000     0.237620000000     0.0474448  
H98      H      0.559330000000     0.778410000000     0.249780000000     0.0664545  
H99      H      0.385000000000     0.047130000000     0.190220000000     0.046239   
H100     H      0.460510000000     0.635450000000     0.187420000000     0.0478626  
H101     H      0.300270000000     0.056280000000     0.191850000000     0.0365399  
H102     H      0.324970000000     0.650570000000     0.191260000000     0.0670376  
H103     H      0.420090000000     0.059580000000     0.240770000000     0.0484591  
H104     H      0.444320000000     0.652850000000     0.239370000000     0.0497006  
H105     H      0.360720000000     0.662860000000     0.241760000000     0.0698584  
H106     H      0.432710000000     0.560910000000     0.432040000000     0.0611407  
H107     H      0.444650000000     0.650920000000     0.940420000000     0.0502721  
H108     H      0.332720000000     0.609120000000     0.426750000000     0.0431293  
H109     H      0.326310000000     0.625750000000     0.003480000000     0.0579415  
H110     H      0.399230000000     0.040400000000     0.484020000000     0.0618735  
H111     H      0.471420000000     0.133860000000     0.986360000000     0.0481026  
H112     H      0.331980000000     0.070140000000     0.021200000000     0.0650431  
H113     H      0.297270000000     0.788280000000     0.428030000000     0.0609431  
H114     H      0.374160000000     0.776310000000     0.930450000000     0.0489417  
H115     H      0.437590000000     0.876380000000     0.404080000000     0.037276   
H116     H      0.477890000000     0.898340000000     0.477470000000     0.0648733  
H117     H      0.318550000000     0.827580000000     0.977540000000     0.0643654  
H118     H      0.335680000000     0.752280000000     0.979600000000     0.0477156  
H119     H      0.425630000000     0.903490000000     0.000610000000     0.0700147  
H120     H      0.429270000000     0.879940000000     0.255100000000     0.0456196  
H121     H      0.473980000000     0.909650000000     0.186480000000     0.045199   
H122     H      0.334450000000     0.791300000000     0.233590000000     0.0423925  
H123     H      0.322390000000     0.782560000000     0.153940000000     0.062107   
H124     H      0.434070000000     0.942590000000     0.243590000000     0.0443722  
H125     H      0.428950000000     0.928030000000     0.165680000000     0.0426592  
H126     H      0.334000000000     0.849410000000     0.149100000000     0.0639876  
H127     H      0.603500000000     0.869260000000     0.918810000000     0.0475719  
H128     H      0.594770000000     0.903740000000     0.988780000000     0.0497369  
H129     H      0.115000000000     0.782050000000     0.433970000000     0.042641   
H130     H      0.111750000000     0.767720000000     0.512330000000     0.0606509  
H131     H      0.659390000000     0.932740000000     0.927920000000     0.0623894  
H132     H      0.657260000000     0.916880000000     0.006570000000     0.0545029  
H133     H      0.167540000000     0.831600000000     0.522170000000     0.0661452  
H134     H      0.180720000000     0.907610000000     0.692300000000     0.0511529  
H135     H      0.599170000000     0.904540000000     0.683890000000     0.048188   
H136     H      0.159170000000     0.804210000000     0.700260000000     0.0495057  
H137     H      0.565450000000     0.743520000000     0.703400000000     0.0668337  
H138     H      0.170160000000     0.935840000000     0.740850000000     0.0580494  
H139     H      0.578080000000     0.875830000000     0.737620000000     0.047447   
H140     H      0.559330000000     0.778410000000     0.749780000000     0.0664549  
H141     H      0.385000000000     0.047130000000     0.690230000000     0.0462517  
H142     H      0.460510000000     0.635450000000     0.687420000000     0.0478632  
H143     H      0.300270000000     0.056280000000     0.691850000000     0.0365427  
H144     H      0.324970000000     0.650570000000     0.691250000000     0.0670301  
H145     H      0.420090000000     0.059580000000     0.740770000000     0.0484653  
H146     H      0.444320000000     0.652850000000     0.739370000000     0.0496991  
H147     H      0.360720000000     0.662860000000     0.741760000000     0.0698555  
H148     H      0.432710000000     0.560910000000     0.932040000000     0.0611512  
H149     H      0.444650000000     0.650920000000     0.440420000000     0.0502765  
H150     H      0.332720000000     0.609120000000     0.926750000000     0.0431481  
H151     H      0.326310000000     0.625750000000     0.503480000000     0.0580524  
H152     H      0.399230000000     0.040400000000     0.984020000000     0.0618959  
H153     H      0.471420000000     0.133860000000     0.486360000000     0.0480877  
H154     H      0.331980000000     0.070140000000     0.521200000000     0.0651473  
H155     H      0.297270000000     0.788280000000     0.928030000000     0.0609484  
H156     H      0.374160000000     0.776310000000     0.430460000000     0.0489486  
H157     H      0.437590000000     0.876380000000     0.904070000000     0.0372833  
H158     H      0.477890000000     0.898340000000     0.977460000000     0.0648772  
H159     H      0.318550000000     0.827580000000     0.477540000000     0.064346   
H160     H      0.335680000000     0.752280000000     0.479600000000     0.0476953  
H161     H      0.425630000000     0.903490000000     0.500610000000     0.0701034  
H162     H      0.429270000000     0.879940000000     0.755100000000     0.0456151  
H163     H      0.473980000000     0.909650000000     0.686480000000     0.0452016  
H164     H      0.334450000000     0.791300000000     0.733590000000     0.0423908  
H165     H      0.322390000000     0.782560000000     0.653940000000     0.0621127  
H166     H      0.434070000000     0.942590000000     0.743590000000     0.04437    
H167     H      0.428950000000     0.928030000000     0.665680000000     0.0426653  
H168     H      0.334000000000     0.849410000000     0.649100000000     0.0639954  
H169     H      0.103500000000     0.369260000000     0.418810000000     0.04783    
H170     H      0.094770000000     0.403740000000     0.488780000000     0.0500341  
H171     H      0.615000000000     0.282050000000     0.933970000000     0.0424173  
H172     H      0.611750000000     0.267710000000     0.012330000000     0.0603933  
H173     H      0.159390000000     0.432740000000     0.427930000000     0.0625102  
H174     H      0.157260000000     0.416880000000     0.506570000000     0.0546673  
H175     H      0.667540000000     0.331600000000     0.022170000000     0.0661058  
H176     H      0.680720000000     0.407610000000     0.192310000000     0.0511694  
H177     H      0.099170000000     0.404540000000     0.183890000000     0.0484451  
H178     H      0.659170000000     0.304210000000     0.200260000000     0.0494804  
H179     H      0.065450000000     0.243530000000     0.203400000000     0.0671605  
H180     H      0.670160000000     0.435840000000     0.240850000000     0.0580152  
H181     H      0.078080000000     0.375830000000     0.237620000000     0.0477822  
H182     H      0.059330000000     0.278410000000     0.249780000000     0.0668022  
H183     H      0.885000000000     0.547130000000     0.190220000000     0.0461526  
H184     H      0.960510000000     0.135450000000     0.187420000000     0.0475459  
H185     H      0.800270000000     0.556280000000     0.191850000000     0.0365039  
H186     H      0.824970000000     0.150570000000     0.191260000000     0.0670087  
H187     H      0.920090000000     0.559580000000     0.240770000000     0.0482818  
H188     H      0.944320000000     0.152850000000     0.239370000000     0.0493963  
H189     H      0.860720000000     0.162860000000     0.241760000000     0.0697646  
H190     H      0.932710000000     0.060910000000     0.432040000000     0.0610332  
H191     H      0.944650000000     0.150910000000     0.940420000000     0.0500428  
H192     H      0.832720000000     0.109120000000     0.426750000000     0.043071   
H193     H      0.826310000000     0.125750000000     0.003480000000     0.0579098  
H194     H      0.899240000000     0.540400000000     0.484020000000     0.0617925  
H195     H      0.971410000000     0.633860000000     0.986360000000     0.0478245  
H196     H      0.831980000000     0.570140000000     0.021200000000     0.0650014  
H197     H      0.797270000000     0.288280000000     0.428030000000     0.0609064  
H198     H      0.874160000000     0.276310000000     0.930450000000     0.0488397  
H199     H      0.937590000000     0.376370000000     0.404080000000     0.0371168  
H200     H      0.977900000000     0.398340000000     0.477470000000     0.064566   
H201     H      0.818550000000     0.327580000000     0.977540000000     0.0643569  
H202     H      0.835680000000     0.252290000000     0.979600000000     0.0476811  
H203     H      0.925620000000     0.403480000000     0.000610000000     0.0699535  
H204     H      0.929270000000     0.379950000000     0.255100000000     0.045455   
H205     H      0.973980000000     0.409650000000     0.186480000000     0.0448889  
H206     H      0.834440000000     0.291300000000     0.233590000000     0.0423446  
H207     H      0.822390000000     0.282560000000     0.153940000000     0.0620737  
H208     H      0.934070000000     0.442590000000     0.243590000000     0.0442451  
H209     H      0.928950000000     0.428030000000     0.165680000000     0.0425449  
H210     H      0.834000000000     0.349410000000     0.149100000000     0.0639744  
H211     H      0.103500000000     0.369260000000     0.918810000000     0.0478383  
H212     H      0.094770000000     0.403740000000     0.988780000000     0.0500303  
H213     H      0.615000000000     0.282050000000     0.433970000000     0.0424196  
H214     H      0.611750000000     0.267710000000     0.512330000000     0.0604056  
H215     H      0.159390000000     0.432740000000     0.927920000000     0.0625207  
H216     H      0.157260000000     0.416880000000     0.006570000000     0.0545729  
H217     H      0.667540000000     0.331600000000     0.522170000000     0.0661113  
H218     H      0.680720000000     0.407610000000     0.692300000000     0.0511598  
H219     H      0.099170000000     0.404540000000     0.683890000000     0.0484493  
H220     H      0.659170000000     0.304210000000     0.700260000000     0.0494813  
H221     H      0.065450000000     0.243530000000     0.703400000000     0.0671615  
H222     H      0.670160000000     0.435840000000     0.740850000000     0.0580091  
H223     H      0.078080000000     0.375830000000     0.737620000000     0.0477844  
H224     H      0.059330000000     0.278410000000     0.749780000000     0.0668025  
H225     H      0.885000000000     0.547130000000     0.690230000000     0.0461653  
H226     H      0.960510000000     0.135450000000     0.687420000000     0.0475464  
H227     H      0.800270000000     0.556280000000     0.691850000000     0.0365067  
H228     H      0.824970000000     0.150570000000     0.691250000000     0.0670012  
H229     H      0.920090000000     0.559580000000     0.740770000000     0.048288   
H230     H      0.944320000000     0.152850000000     0.739370000000     0.0493948  
H231     H      0.860720000000     0.162860000000     0.741760000000     0.0697617  
H232     H      0.932710000000     0.060910000000     0.932040000000     0.0610437  
H233     H      0.944650000000     0.150910000000     0.440420000000     0.0500472  
H234     H      0.832720000000     0.109120000000     0.926750000000     0.0430898  
H235     H      0.826310000000     0.125750000000     0.503480000000     0.0580208  
H236     H      0.899240000000     0.540400000000     0.984020000000     0.061815   
H237     H      0.971410000000     0.633860000000     0.486360000000     0.0478096  
H238     H      0.831980000000     0.570140000000     0.521200000000     0.0651057  
H239     H      0.797270000000     0.288280000000     0.928030000000     0.0609117  
H240     H      0.874160000000     0.276310000000     0.430460000000     0.0488466  
H241     H      0.937590000000     0.376370000000     0.904070000000     0.0371241  
H242     H      0.977900000000     0.398340000000     0.977460000000     0.06457    
H243     H      0.818550000000     0.327580000000     0.477540000000     0.0643375  
H244     H      0.835680000000     0.252290000000     0.479600000000     0.0476608  
H245     H      0.925620000000     0.403480000000     0.500610000000     0.0700422  
H246     H      0.929270000000     0.379950000000     0.755100000000     0.0454505  
H247     H      0.973980000000     0.409650000000     0.686480000000     0.0448915  
H248     H      0.834440000000     0.291300000000     0.733590000000     0.0423429  
H249     H      0.822390000000     0.282560000000     0.653940000000     0.0620794  
H250     H      0.934070000000     0.442590000000     0.743590000000     0.0442428  
H251     H      0.928950000000     0.428030000000     0.665680000000     0.042551   
H252     H      0.834000000000     0.349410000000     0.649100000000     0.0639822  
H253     H      0.103500000000     0.869260000000     0.418810000000     0.0478255  
H254     H      0.094770000000     0.903740000000     0.488780000000     0.050027   
H255     H      0.615000000000     0.782050000000     0.933970000000     0.0424125  
H256     H      0.611750000000     0.767720000000     0.012330000000     0.0604066  
H257     H      0.159390000000     0.932740000000     0.427930000000     0.0624878  
H258     H      0.157260000000     0.916880000000     0.506570000000     0.0546563  
H259     H      0.667540000000     0.831600000000     0.022170000000     0.0661101  
H260     H      0.680720000000     0.907610000000     0.192310000000     0.0511479  
H261     H      0.099170000000     0.904540000000     0.183890000000     0.0484325  
H262     H      0.659170000000     0.804210000000     0.200260000000     0.0494833  
H263     H      0.065450000000     0.743520000000     0.203400000000     0.0671487  
H264     H      0.670150000000     0.935840000000     0.240850000000     0.0579802  
H265     H      0.078080000000     0.875830000000     0.237620000000     0.0477731  
H266     H      0.059330000000     0.778410000000     0.249780000000     0.0667916  
H267     H      0.885000000000     0.047130000000     0.190220000000     0.0461697  
H268     H      0.960510000000     0.635450000000     0.187420000000     0.0475396  
H269     H      0.800270000000     0.056280000000     0.191850000000     0.0365249  
H270     H      0.824970000000     0.650570000000     0.191260000000     0.0670038  
H271     H      0.920090000000     0.059580000000     0.240770000000     0.0482933  
H272     H      0.944320000000     0.652850000000     0.239370000000     0.0493943  
H273     H      0.860720000000     0.662860000000     0.241760000000     0.0697652  
H274     H      0.932710000000     0.560910000000     0.432040000000     0.0610076  
H275     H      0.944650000000     0.650920000000     0.940420000000     0.0500384  
H276     H      0.832720000000     0.609120000000     0.426750000000     0.0430748  
H277     H      0.826310000000     0.625750000000     0.003480000000     0.0578998  
H278     H      0.899240000000     0.040400000000     0.484020000000     0.0618211  
H279     H      0.971410000000     0.133860000000     0.986360000000     0.0478355  
H280     H      0.831980000000     0.070140000000     0.021200000000     0.0650265  
H281     H      0.797270000000     0.788280000000     0.428030000000     0.0609093  
H282     H      0.874160000000     0.776310000000     0.930450000000     0.0488407  
H283     H      0.937590000000     0.876380000000     0.404080000000     0.0371194  
H284     H      0.977900000000     0.898340000000     0.477470000000     0.0645533  
H285     H      0.818550000000     0.827580000000     0.977540000000     0.0643539  
H286     H      0.835680000000     0.752280000000     0.979600000000     0.0476756  
H287     H      0.925630000000     0.903490000000     0.000610000000     0.0699336  
H288     H      0.929270000000     0.879940000000     0.255100000000     0.0454331  
H289     H      0.973980000000     0.909650000000     0.186480000000     0.0449015  
H290     H      0.834450000000     0.791300000000     0.233590000000     0.0423343  
H291     H      0.822390000000     0.782560000000     0.153940000000     0.0620888  
H292     H      0.934070000000     0.942590000000     0.243590000000     0.0442132  
H293     H      0.928950000000     0.928030000000     0.165680000000     0.0425566  
H294     H      0.834000000000     0.849410000000     0.149100000000     0.0639903  
H295     H      0.103500000000     0.869260000000     0.918810000000     0.0478337  
H296     H      0.094770000000     0.903740000000     0.988780000000     0.0500233  
H297     H      0.615000000000     0.782050000000     0.433970000000     0.0424148  
H298     H      0.611750000000     0.767720000000     0.512330000000     0.0604189  
H299     H      0.159390000000     0.932740000000     0.927920000000     0.0624983  
H300     H      0.157260000000     0.916880000000     0.006570000000     0.0545619  
H301     H      0.667540000000     0.831600000000     0.522170000000     0.0661157  
H302     H      0.680720000000     0.907610000000     0.692300000000     0.0511383  
H303     H      0.099170000000     0.904540000000     0.683890000000     0.0484367  
H304     H      0.659170000000     0.804210000000     0.700260000000     0.0494842  
H305     H      0.065450000000     0.743520000000     0.703400000000     0.0671497  
H306     H      0.670150000000     0.935840000000     0.740850000000     0.057974   
H307     H      0.078080000000     0.875830000000     0.737620000000     0.0477753  
H308     H      0.059330000000     0.778410000000     0.749780000000     0.0667919  
H309     H      0.885000000000     0.047130000000     0.690230000000     0.0461824  
H310     H      0.960510000000     0.635450000000     0.687420000000     0.0475402  
H311     H      0.800270000000     0.056280000000     0.691850000000     0.0365277  
H312     H      0.824970000000     0.650570000000     0.691250000000     0.0669963  
H313     H      0.920090000000     0.059580000000     0.740770000000     0.0482995  
H314     H      0.944320000000     0.652850000000     0.739370000000     0.0493927  
H315     H      0.860720000000     0.662860000000     0.741760000000     0.0697623  
H316     H      0.932710000000     0.560910000000     0.932040000000     0.0610181  
H317     H      0.944650000000     0.650920000000     0.440420000000     0.0500427  
H318     H      0.832720000000     0.609120000000     0.926750000000     0.0430936  
H319     H      0.826310000000     0.625750000000     0.503480000000     0.0580108  
H320     H      0.899240000000     0.040400000000     0.984020000000     0.0618437  
H321     H      0.971410000000     0.133860000000     0.486360000000     0.0478206  
H322     H      0.831980000000     0.070140000000     0.521200000000     0.0651308  
H323     H      0.797270000000     0.788280000000     0.928030000000     0.0609147  
H324     H      0.874160000000     0.776310000000     0.430460000000     0.0488476  
H325     H      0.937590000000     0.876380000000     0.904070000000     0.0371267  
H326     H      0.977900000000     0.898340000000     0.977460000000     0.0645572  
H327     H      0.818550000000     0.827580000000     0.477540000000     0.0643345  
H328     H      0.835680000000     0.752280000000     0.479600000000     0.0476552  
H329     H      0.925630000000     0.903490000000     0.500610000000     0.0700223  
H330     H      0.929270000000     0.879940000000     0.755100000000     0.0454286  
H331     H      0.973980000000     0.909650000000     0.686480000000     0.0449041  
H332     H      0.834450000000     0.791300000000     0.733590000000     0.0423326  
H333     H      0.822390000000     0.782560000000     0.653940000000     0.0620945  
H334     H      0.934070000000     0.942590000000     0.743590000000     0.0442109  
H335     H      0.928950000000     0.928030000000     0.665680000000     0.0425627  
H336     H      0.834000000000     0.849410000000     0.649100000000     0.0639981  
N1       N      0.170310000000     0.364680000000     0.432760000000    -0.182143   
N2       N      0.601290000000     0.335310000000     0.005760000000    -0.183352   
N3       N      0.187200000000     0.291520000000     0.954150000000    -0.0326971  
N4       N      0.163170000000     0.358500000000     0.248400000000    -0.188773   
N5       N      0.578230000000     0.322250000000     0.190740000000    -0.183756   
N6       N      0.143850000000     0.267180000000     0.262830000000    -0.0188331  
N7       N      0.347780000000     0.559430000000     0.244360000000    -0.19114    
N8       N      0.395280000000     0.148010000000     0.187400000000    -0.181236   
N9       N      0.270550000000     0.568310000000     0.251160000000    -0.0261873  
N10      N      0.356790000000     0.551890000000     0.433540000000    -0.183302   
N11      N      0.401700000000     0.135010000000     0.999250000000    -0.18342    
N12      N      0.270890000000     0.538890000000     0.454750000000    -0.0322338  
N13      N      0.364840000000     0.365490000000     0.421640000000    -0.187885   
N14      N      0.407890000000     0.325420000000     0.986310000000    -0.183063   
N15      N      0.445750000000     0.450830000000     0.419820000000    -0.0240397  
N16      N      0.358060000000     0.373520000000     0.237680000000    -0.187289   
N17      N      0.400180000000     0.345400000000     0.165940000000    -0.184719   
N18      N      0.270860000000     0.300490000000     0.214850000000    -0.0314328  
N19      N      0.170310000000     0.364680000000     0.932760000000    -0.182142   
N20      N      0.601290000000     0.335310000000     0.505760000000    -0.183322   
N21      N      0.187200000000     0.291520000000     0.454150000000    -0.0327011  
N22      N      0.163170000000     0.358500000000     0.748400000000    -0.188777   
N23      N      0.578230000000     0.322250000000     0.690740000000    -0.183754   
N24      N      0.143850000000     0.267180000000     0.762830000000    -0.0188334  
N25      N      0.347780000000     0.559430000000     0.744360000000    -0.191139   
N26      N      0.395280000000     0.148010000000     0.687400000000    -0.181241   
N27      N      0.270550000000     0.568310000000     0.751160000000    -0.0261754  
N28      N      0.356790000000     0.551890000000     0.933530000000    -0.183341   
N29      N      0.401700000000     0.135010000000     0.499250000000    -0.183462   
N30      N      0.270890000000     0.538890000000     0.954750000000    -0.0322167  
N31      N      0.364840000000     0.365490000000     0.921640000000    -0.187892   
N32      N      0.407890000000     0.325420000000     0.486310000000    -0.1831     
N33      N      0.445750000000     0.450830000000     0.919820000000    -0.0240399  
N34      N      0.358060000000     0.373520000000     0.737680000000    -0.187316   
N35      N      0.400180000000     0.345400000000     0.665940000000    -0.184717   
N36      N      0.270860000000     0.300490000000     0.714850000000    -0.0314322  
N37      N      0.170310000000     0.864680000000     0.432760000000    -0.182146   
N38      N      0.601290000000     0.835310000000     0.005760000000    -0.183349   
N39      N      0.187200000000     0.791520000000     0.954150000000    -0.0327025  
N40      N      0.163170000000     0.858500000000     0.248400000000    -0.188773   
N41      N      0.578230000000     0.822250000000     0.190740000000    -0.183736   
N42      N      0.143850000000     0.767180000000     0.262830000000    -0.0188196  
N43      N      0.347780000000     0.059430000000     0.244360000000    -0.191125   
N44      N      0.395280000000     0.648010000000     0.187400000000    -0.181194   
N45      N      0.270550000000     0.068310000000     0.251160000000    -0.0261798  
N46      N      0.356790000000     0.051890000000     0.433540000000    -0.183309   
N47      N      0.401700000000     0.635010000000     0.999250000000    -0.183424   
N48      N      0.270890000000     0.038900000000     0.454750000000    -0.032205   
N49      N      0.364850000000     0.865490000000     0.421640000000    -0.187849   
N50      N      0.407900000000     0.825420000000     0.986310000000    -0.183096   
N51      N      0.445750000000     0.950830000000     0.419820000000    -0.0240217  
N52      N      0.358060000000     0.873520000000     0.237680000000    -0.187332   
N53      N      0.400180000000     0.845400000000     0.165940000000    -0.184705   
N54      N      0.270860000000     0.800480000000     0.214850000000    -0.0314507  
N55      N      0.170310000000     0.864680000000     0.932760000000    -0.182145   
N56      N      0.601290000000     0.835310000000     0.505760000000    -0.183318   
N57      N      0.187200000000     0.791520000000     0.454150000000    -0.0327065  
N58      N      0.163170000000     0.858500000000     0.748400000000    -0.188777   
N59      N      0.578230000000     0.822250000000     0.690740000000    -0.183734   
N60      N      0.143850000000     0.767180000000     0.762830000000    -0.01882    
N61      N      0.347780000000     0.059430000000     0.744360000000    -0.191125   
N62      N      0.395280000000     0.648010000000     0.687400000000    -0.181199   
N63      N      0.270550000000     0.068310000000     0.751160000000    -0.0261679  
N64      N      0.356790000000     0.051890000000     0.933530000000    -0.183348   
N65      N      0.401700000000     0.635010000000     0.499250000000    -0.183466   
N66      N      0.270890000000     0.038900000000     0.954750000000    -0.0321879  
N67      N      0.364850000000     0.865490000000     0.921640000000    -0.187857   
N68      N      0.407900000000     0.825420000000     0.486310000000    -0.183132   
N69      N      0.445750000000     0.950830000000     0.919820000000    -0.0240219  
N70      N      0.358060000000     0.873520000000     0.737680000000    -0.187359   
N71      N      0.400180000000     0.845400000000     0.665940000000    -0.184702   
N72      N      0.270860000000     0.800480000000     0.714850000000    -0.0314501  
N73      N      0.670310000000     0.364680000000     0.432760000000    -0.182152   
N74      N      0.101290000000     0.335310000000     0.005760000000    -0.18318    
N75      N      0.687200000000     0.291520000000     0.954150000000    -0.032734   
N76      N      0.663180000000     0.358500000000     0.248400000000    -0.188792   
N77      N      0.078230000000     0.322250000000     0.190740000000    -0.183553   
N78      N      0.643850000000     0.267180000000     0.262830000000    -0.0187925  
N79      N      0.847780000000     0.559430000000     0.244360000000    -0.191137   
N80      N      0.895280000000     0.148010000000     0.187400000000    -0.181261   
N81      N      0.770550000000     0.568310000000     0.251160000000    -0.0261837  
N82      N      0.856790000000     0.551890000000     0.433540000000    -0.183308   
N83      N      0.901700000000     0.135010000000     0.999250000000    -0.183453   
N84      N      0.770890000000     0.538890000000     0.454750000000    -0.0322499  
N85      N      0.864850000000     0.365490000000     0.421640000000    -0.187856   
N86      N      0.907890000000     0.325420000000     0.986310000000    -0.183086   
N87      N      0.945750000000     0.450830000000     0.419820000000    -0.0240408  
N88      N      0.858060000000     0.373520000000     0.237680000000    -0.187303   
N89      N      0.900180000000     0.345400000000     0.165940000000    -0.184741   
N90      N      0.770860000000     0.300490000000     0.214850000000    -0.0314458  
N91      N      0.670310000000     0.364680000000     0.932760000000    -0.182151   
N92      N      0.101290000000     0.335310000000     0.505760000000    -0.183149   
N93      N      0.687200000000     0.291520000000     0.454150000000    -0.032738   
N94      N      0.663180000000     0.358500000000     0.748400000000    -0.188796   
N95      N      0.078230000000     0.322250000000     0.690740000000    -0.183552   
N96      N      0.643850000000     0.267180000000     0.762830000000    -0.0187929  
N97      N      0.847780000000     0.559430000000     0.744360000000    -0.191136   
N98      N      0.895280000000     0.148010000000     0.687400000000    -0.181265   
N99      N      0.770550000000     0.568310000000     0.751160000000    -0.0261718  
N100     N      0.856790000000     0.551890000000     0.933530000000    -0.183347   
N101     N      0.901700000000     0.135010000000     0.499250000000    -0.183495   
N102     N      0.770890000000     0.538890000000     0.954750000000    -0.0322328  
N103     N      0.864850000000     0.365490000000     0.921640000000    -0.187864   
N104     N      0.907890000000     0.325420000000     0.486310000000    -0.183122   
N105     N      0.945750000000     0.450830000000     0.919820000000    -0.024041   
N106     N      0.858060000000     0.373520000000     0.737680000000    -0.18733    
N107     N      0.900180000000     0.345400000000     0.665940000000    -0.184738   
N108     N      0.770860000000     0.300490000000     0.714850000000    -0.0314451  
N109     N      0.670310000000     0.864680000000     0.432760000000    -0.182163   
N110     N      0.101290000000     0.835310000000     0.005760000000    -0.183205   
N111     N      0.687200000000     0.791520000000     0.954150000000    -0.0327401  
N112     N      0.663170000000     0.858500000000     0.248400000000    -0.188777   
N113     N      0.078230000000     0.822250000000     0.190740000000    -0.183534   
N114     N      0.643850000000     0.767180000000     0.262830000000    -0.0187796  
N115     N      0.847780000000     0.059430000000     0.244360000000    -0.191151   
N116     N      0.895280000000     0.648010000000     0.187400000000    -0.181228   
N117     N      0.770550000000     0.068310000000     0.251160000000    -0.0261767  
N118     N      0.856790000000     0.051890000000     0.433540000000    -0.183317   
N119     N      0.901700000000     0.635010000000     0.999250000000    -0.183459   
N120     N      0.770890000000     0.038900000000     0.454750000000    -0.0322202  
N121     N      0.864850000000     0.865490000000     0.421640000000    -0.187819   
N122     N      0.907900000000     0.825420000000     0.986310000000    -0.183125   
N123     N      0.945750000000     0.950830000000     0.419820000000    -0.0240148  
N124     N      0.858060000000     0.873520000000     0.237680000000    -0.187347   
N125     N      0.900170000000     0.845400000000     0.165940000000    -0.184671   
N126     N      0.770860000000     0.800480000000     0.214850000000    -0.0314656  
N127     N      0.670310000000     0.864680000000     0.932760000000    -0.182161   
N128     N      0.101290000000     0.835310000000     0.505760000000    -0.183174   
N129     N      0.687200000000     0.791520000000     0.454150000000    -0.0327441  
N130     N      0.663170000000     0.858500000000     0.748400000000    -0.188781   
N131     N      0.078230000000     0.822250000000     0.690740000000    -0.183533   
N132     N      0.643850000000     0.767180000000     0.762830000000    -0.01878    
N133     N      0.847780000000     0.059430000000     0.744360000000    -0.19115    
N134     N      0.895280000000     0.648010000000     0.687400000000    -0.181232   
N135     N      0.770550000000     0.068310000000     0.751160000000    -0.0261648  
N136     N      0.856790000000     0.051890000000     0.933530000000    -0.183356   
N137     N      0.901700000000     0.635010000000     0.499250000000    -0.183501   
N138     N      0.770890000000     0.038900000000     0.954750000000    -0.0322031  
N139     N      0.864850000000     0.865490000000     0.921640000000    -0.187826   
N140     N      0.907900000000     0.825420000000     0.486310000000    -0.183161   
N141     N      0.945750000000     0.950830000000     0.919820000000    -0.0240151  
N142     N      0.858060000000     0.873520000000     0.737680000000    -0.187374   
N143     N      0.900170000000     0.845400000000     0.665940000000    -0.184668   
N144     N      0.770860000000     0.800480000000     0.714850000000    -0.031465   
O1       O      0.204040000000     0.413070000000     0.306490000000    -0.502175   
O2       O      0.361950000000     0.491560000000     0.388350000000    -0.485394   
O3       O      0.228280000000     0.357080000000     0.286350000000    -0.477609   
O4       O      0.209460000000     0.352080000000     0.372840000000    -0.476522   
O5       O      0.284060000000     0.492570000000     0.285140000000    -0.49041    
O6       O      0.370500000000     0.415810000000     0.361640000000    -0.490645   
O7       O      0.293130000000     0.429130000000     0.336090000000    -0.879079   
O8       O      0.358460000000     0.439120000000     0.279050000000    -0.502192   
O9       O      0.309070000000     0.357200000000     0.299780000000    -0.477418   
O10      O      0.231700000000     0.432750000000     0.391460000000    -0.48413    
O11      O      0.294770000000     0.361880000000     0.387680000000    -0.481727   
O12      O      0.363460000000     0.522110000000     0.304280000000    -0.499697   
O13      O      0.307970000000     0.517900000000     0.371140000000    -0.473231   
O14      O      0.444060000000     0.177210000000     0.124560000000    -0.486877   
O15      O      0.533260000000     0.336520000000     0.038320000000    -0.505098   
O16      O      0.395010000000     0.210140000000     0.141520000000    -0.497811   
O17      O      0.391870000000     0.175370000000     0.059620000000    -0.504283   
O18      O      0.521550000000     0.258090000000     0.144580000000    -0.508629   
O19      O      0.455360000000     0.341620000000     0.049350000000    -0.489454   
O20      O      0.465200000000     0.267630000000     0.088590000000    -0.871918   
O21      O      0.467830000000     0.339080000000     0.138040000000    -0.503004   
O22      O      0.391640000000     0.287620000000     0.111620000000    -0.507329   
O23      O      0.469530000000     0.201620000000     0.037320000000    -0.494246   
O24      O      0.402110000000     0.259360000000     0.030660000000    -0.502155   
O25      O      0.549560000000     0.340600000000     0.126560000000    -0.494803   
O26      O      0.552990000000     0.278020000000     0.060670000000    -0.500436   
O27      O      0.234570000000     0.331460000000     0.962410000000    -0.0945608  
O28      O      0.187580000000     0.268660000000     0.916180000000    -0.0922689  
O29      O      0.115800000000     0.261090000000     0.298820000000    -0.100558   
O30      O      0.125750000000     0.219460000000     0.244370000000    -0.0976577  
O31      O      0.286670000000     0.598700000000     0.287180000000    -0.101499   
O32      O      0.239920000000     0.581070000000     0.228830000000    -0.107213   
O33      O      0.262570000000     0.491000000000     0.466420000000    -0.0926458  
O34      O      0.245850000000     0.534530000000     0.417270000000    -0.098661   
O35      O      0.432020000000     0.473360000000     0.451270000000    -0.106654   
O36      O      0.496930000000     0.473010000000     0.421140000000    -0.111033   
O37      O      0.261330000000     0.340010000000     0.207530000000    -0.0944178  
O38      O      0.248660000000     0.276570000000     0.252600000000    -0.0795401  
O39      O      0.204040000000     0.413070000000     0.806490000000    -0.50218    
O40      O      0.361950000000     0.491560000000     0.888350000000    -0.48529    
O41      O      0.228280000000     0.357080000000     0.786350000000    -0.477621   
O42      O      0.209460000000     0.352080000000     0.872840000000    -0.476528   
O43      O      0.284060000000     0.492570000000     0.785140000000    -0.490421   
O44      O      0.370500000000     0.415810000000     0.861640000000    -0.490606   
O45      O      0.293130000000     0.429130000000     0.836090000000    -0.879083   
O46      O      0.358460000000     0.439120000000     0.779050000000    -0.50236    
O47      O      0.309070000000     0.357200000000     0.799770000000    -0.477468   
O48      O      0.231700000000     0.432750000000     0.891460000000    -0.48413    
O49      O      0.294770000000     0.361880000000     0.887670000000    -0.481837   
O50      O      0.363460000000     0.522110000000     0.804280000000    -0.499758   
O51      O      0.307970000000     0.517900000000     0.871140000000    -0.473233   
O52      O      0.444060000000     0.177210000000     0.624560000000    -0.486878   
O53      O      0.533260000000     0.336520000000     0.538320000000    -0.505111   
O54      O      0.395010000000     0.210140000000     0.641520000000    -0.497814   
O55      O      0.391870000000     0.175370000000     0.559610000000    -0.504339   
O56      O      0.521550000000     0.258090000000     0.644580000000    -0.508631   
O57      O      0.455360000000     0.341620000000     0.549350000000    -0.489453   
O58      O      0.465200000000     0.267630000000     0.588590000000    -0.871914   
O59      O      0.467830000000     0.339080000000     0.638040000000    -0.503004   
O60      O      0.391640000000     0.287620000000     0.611620000000    -0.50732    
O61      O      0.469530000000     0.201620000000     0.537320000000    -0.494266   
O62      O      0.402110000000     0.259360000000     0.530660000000    -0.502134   
O63      O      0.549560000000     0.340600000000     0.626560000000    -0.49481    
O64      O      0.552990000000     0.278020000000     0.560660000000    -0.500465   
O65      O      0.234570000000     0.331460000000     0.462410000000    -0.094579   
O66      O      0.187580000000     0.268660000000     0.416180000000    -0.0922756  
O67      O      0.115800000000     0.261090000000     0.798820000000    -0.100557   
O68      O      0.125750000000     0.219460000000     0.744370000000    -0.0976556  
O69      O      0.286670000000     0.598700000000     0.787170000000    -0.101498   
O70      O      0.239920000000     0.581070000000     0.728830000000    -0.10721    
O71      O      0.262570000000     0.491000000000     0.966420000000    -0.0926178  
O72      O      0.245850000000     0.534530000000     0.917270000000    -0.0986544  
O73      O      0.432020000000     0.473360000000     0.951270000000    -0.106633   
O74      O      0.496930000000     0.473010000000     0.921140000000    -0.111024   
O75      O      0.261330000000     0.340010000000     0.707530000000    -0.0944135  
O76      O      0.248660000000     0.276570000000     0.752600000000    -0.0795345  
O77      O      0.204040000000     0.913070000000     0.306490000000    -0.502176   
O78      O      0.361950000000     0.991560000000     0.388350000000    -0.485498   
O79      O      0.228280000000     0.857080000000     0.286350000000    -0.477605   
O80      O      0.209460000000     0.852080000000     0.372840000000    -0.476445   
O81      O      0.284060000000     0.992570000000     0.285140000000    -0.490522   
O82      O      0.370500000000     0.915810000000     0.361640000000    -0.490619   
O83      O      0.293130000000     0.929130000000     0.336090000000    -0.879059   
O84      O      0.358460000000     0.939120000000     0.279050000000    -0.502102   
O85      O      0.309070000000     0.857200000000     0.299780000000    -0.477439   
O86      O      0.231700000000     0.932750000000     0.391460000000    -0.484235   
O87      O      0.294770000000     0.861880000000     0.387680000000    -0.48171    
O88      O      0.363460000000     0.022110000000     0.304280000000    -0.499656   
O89      O      0.307970000000     0.017900000000     0.371140000000    -0.473196   
O90      O      0.444060000000     0.677210000000     0.124560000000    -0.486821   
O91      O      0.533260000000     0.836520000000     0.038320000000    -0.505099   
O92      O      0.395010000000     0.710150000000     0.141520000000    -0.497709   
O93      O      0.391870000000     0.675370000000     0.059620000000    -0.504371   
O94      O      0.521550000000     0.758090000000     0.144580000000    -0.508654   
O95      O      0.455360000000     0.841620000000     0.049350000000    -0.489473   
O96      O      0.465200000000     0.767630000000     0.088590000000    -0.871921   
O97      O      0.467830000000     0.839080000000     0.138040000000    -0.503013   
O98      O      0.391640000000     0.787620000000     0.111620000000    -0.507329   
O99      O      0.469530000000     0.701620000000     0.037320000000    -0.494166   
O100     O      0.402110000000     0.759360000000     0.030660000000    -0.502179   
O101     O      0.549560000000     0.840600000000     0.126560000000    -0.494864   
O102     O      0.552990000000     0.778020000000     0.060670000000    -0.500432   
O103     O      0.234570000000     0.831460000000     0.962410000000    -0.0945648  
O104     O      0.187580000000     0.768650000000     0.916180000000    -0.0922783  
O105     O      0.115800000000     0.761090000000     0.298820000000    -0.100564   
O106     O      0.125750000000     0.719470000000     0.244370000000    -0.0976711  
O107     O      0.286670000000     0.098710000000     0.287180000000    -0.101483   
O108     O      0.239920000000     0.081070000000     0.228830000000    -0.107183   
O109     O      0.262570000000     0.991000000000     0.466420000000    -0.0927401  
O110     O      0.245850000000     0.034530000000     0.417270000000    -0.0986096  
O111     O      0.432020000000     0.973350000000     0.451270000000    -0.1067     
O112     O      0.496920000000     0.973010000000     0.421140000000    -0.11107    
O113     O      0.261330000000     0.840010000000     0.207530000000    -0.0944232  
O114     O      0.248660000000     0.776570000000     0.252600000000    -0.0795375  
O115     O      0.204040000000     0.913070000000     0.806490000000    -0.502181   
O116     O      0.361950000000     0.991560000000     0.888350000000    -0.485394   
O117     O      0.228280000000     0.857080000000     0.786350000000    -0.477617   
O118     O      0.209460000000     0.852080000000     0.872840000000    -0.476451   
O119     O      0.284060000000     0.992570000000     0.785140000000    -0.490533   
O120     O      0.370500000000     0.915810000000     0.861640000000    -0.49058    
O121     O      0.293130000000     0.929130000000     0.836090000000    -0.879063   
O122     O      0.358460000000     0.939120000000     0.779050000000    -0.50227    
O123     O      0.309070000000     0.857200000000     0.799770000000    -0.477489   
O124     O      0.231700000000     0.932750000000     0.891460000000    -0.484235   
O125     O      0.294770000000     0.861880000000     0.887670000000    -0.48182    
O126     O      0.363460000000     0.022110000000     0.804280000000    -0.499717   
O127     O      0.307970000000     0.017900000000     0.871140000000    -0.473198   
O128     O      0.444060000000     0.677210000000     0.624560000000    -0.486822   
O129     O      0.533260000000     0.836520000000     0.538320000000    -0.505112   
O130     O      0.395010000000     0.710150000000     0.641520000000    -0.497712   
O131     O      0.391870000000     0.675370000000     0.559610000000    -0.504427   
O132     O      0.521550000000     0.758090000000     0.644580000000    -0.508656   
O133     O      0.455360000000     0.841620000000     0.549350000000    -0.489472   
O134     O      0.465200000000     0.767630000000     0.588590000000    -0.871918   
O135     O      0.467830000000     0.839080000000     0.638040000000    -0.503012   
O136     O      0.391640000000     0.787620000000     0.611620000000    -0.50732    
O137     O      0.469530000000     0.701620000000     0.537320000000    -0.494186   
O138     O      0.402110000000     0.759360000000     0.530660000000    -0.502158   
O139     O      0.549560000000     0.840600000000     0.626560000000    -0.494871   
O140     O      0.552990000000     0.778020000000     0.560660000000    -0.500461   
O141     O      0.234570000000     0.831460000000     0.462410000000    -0.094583   
O142     O      0.187580000000     0.768650000000     0.416180000000    -0.092285   
O143     O      0.115800000000     0.761090000000     0.798820000000    -0.100563   
O144     O      0.125750000000     0.719470000000     0.744370000000    -0.0976689  
O145     O      0.286670000000     0.098710000000     0.787170000000    -0.101482   
O146     O      0.239920000000     0.081070000000     0.728830000000    -0.107181   
O147     O      0.262570000000     0.991000000000     0.966420000000    -0.0927121  
O148     O      0.245850000000     0.034530000000     0.917270000000    -0.0986029  
O149     O      0.432020000000     0.973350000000     0.951270000000    -0.106679   
O150     O      0.496920000000     0.973010000000     0.921140000000    -0.11106    
O151     O      0.261330000000     0.840010000000     0.707530000000    -0.094419   
O152     O      0.248660000000     0.776570000000     0.752600000000    -0.0795319  
O153     O      0.704030000000     0.413070000000     0.306490000000    -0.502121   
O154     O      0.861950000000     0.491560000000     0.388350000000    -0.48541    
O155     O      0.728280000000     0.357080000000     0.286350000000    -0.477606   
O156     O      0.709470000000     0.352080000000     0.372840000000    -0.476578   
O157     O      0.784060000000     0.492570000000     0.285140000000    -0.490413   
O158     O      0.870500000000     0.415810000000     0.361640000000    -0.490674   
O159     O      0.793130000000     0.429130000000     0.336090000000    -0.879044   
O160     O      0.858460000000     0.439120000000     0.279050000000    -0.502222   
O161     O      0.809070000000     0.357200000000     0.299780000000    -0.477444   
O162     O      0.731700000000     0.432750000000     0.391460000000    -0.484108   
O163     O      0.794770000000     0.361880000000     0.387680000000    -0.481707   
O164     O      0.863460000000     0.522110000000     0.304280000000    -0.49976    
O165     O      0.807970000000     0.517900000000     0.371140000000    -0.473228   
O166     O      0.944060000000     0.177210000000     0.124560000000    -0.486774   
O167     O      0.033260000000     0.336520000000     0.038320000000    -0.503747   
O168     O      0.895010000000     0.210140000000     0.141520000000    -0.497817   
O169     O      0.891870000000     0.175370000000     0.059620000000    -0.504309   
O170     O      0.021550000000     0.258090000000     0.144580000000    -0.507207   
O171     O      0.955360000000     0.341620000000     0.049350000000    -0.489274   
O172     O      0.965200000000     0.267630000000     0.088590000000    -0.871492   
O173     O      0.967830000000     0.339080000000     0.138040000000    -0.503022   
O174     O      0.891640000000     0.287620000000     0.111620000000    -0.50727    
O175     O      0.969530000000     0.201620000000     0.037320000000    -0.494252   
O176     O      0.902110000000     0.259360000000     0.030660000000    -0.502145   
O177     O      0.049560000000     0.340600000000     0.126560000000    -0.493749   
O178     O      0.052990000000     0.278020000000     0.060670000000    -0.499281   
O179     O      0.734570000000     0.331460000000     0.962410000000    -0.0945699  
O180     O      0.687580000000     0.268660000000     0.916180000000    -0.0924161  
O181     O      0.615800000000     0.261090000000     0.298820000000    -0.100843   
O182     O      0.625750000000     0.219460000000     0.244370000000    -0.097972   
O183     O      0.786670000000     0.598700000000     0.287180000000    -0.101589   
O184     O      0.739920000000     0.581070000000     0.228830000000    -0.107356   
O185     O      0.762570000000     0.491000000000     0.466420000000    -0.0926633  
O186     O      0.745850000000     0.534530000000     0.417270000000    -0.0987633  
O187     O      0.932020000000     0.473360000000     0.451270000000    -0.106779   
O188     O      0.996930000000     0.473010000000     0.421140000000    -0.111521   
O189     O      0.761330000000     0.340010000000     0.207530000000    -0.0944301  
O190     O      0.748660000000     0.276570000000     0.252600000000    -0.0796037  
O191     O      0.704030000000     0.413070000000     0.806490000000    -0.502126   
O192     O      0.861950000000     0.491560000000     0.888350000000    -0.485305   
O193     O      0.728280000000     0.357080000000     0.786350000000    -0.477618   
O194     O      0.709470000000     0.352080000000     0.872840000000    -0.476585   
O195     O      0.784060000000     0.492570000000     0.785140000000    -0.490424   
O196     O      0.870500000000     0.415810000000     0.861640000000    -0.490636   
O197     O      0.793130000000     0.429130000000     0.836090000000    -0.879048   
O198     O      0.858460000000     0.439120000000     0.779050000000    -0.50239    
O199     O      0.809070000000     0.357200000000     0.799770000000    -0.477494   
O200     O      0.731700000000     0.432750000000     0.891460000000    -0.484107   
O201     O      0.794770000000     0.361880000000     0.887670000000    -0.481818   
O202     O      0.863460000000     0.522110000000     0.804280000000    -0.499821   
O203     O      0.807970000000     0.517900000000     0.871140000000    -0.47323    
O204     O      0.944060000000     0.177210000000     0.624560000000    -0.486775   
O205     O      0.033260000000     0.336520000000     0.538320000000    -0.50376    
O206     O      0.895010000000     0.210140000000     0.641520000000    -0.49782    
O207     O      0.891870000000     0.175370000000     0.559610000000    -0.504365   
O208     O      0.021550000000     0.258090000000     0.644580000000    -0.507209   
O209     O      0.955360000000     0.341620000000     0.549350000000    -0.489273   
O210     O      0.965200000000     0.267630000000     0.588590000000    -0.871489   
O211     O      0.967830000000     0.339080000000     0.638040000000    -0.503021   
O212     O      0.891640000000     0.287620000000     0.611620000000    -0.50726    
O213     O      0.969530000000     0.201620000000     0.537320000000    -0.494272   
O214     O      0.902110000000     0.259360000000     0.530660000000    -0.502125   
O215     O      0.049560000000     0.340600000000     0.626560000000    -0.493755   
O216     O      0.052990000000     0.278020000000     0.560660000000    -0.499309   
O217     O      0.734570000000     0.331460000000     0.462410000000    -0.0945882  
O218     O      0.687580000000     0.268660000000     0.416180000000    -0.0924229  
O219     O      0.615800000000     0.261090000000     0.798820000000    -0.100842   
O220     O      0.625750000000     0.219460000000     0.744370000000    -0.0979699  
O221     O      0.786670000000     0.598700000000     0.787170000000    -0.101588   
O222     O      0.739920000000     0.581070000000     0.728830000000    -0.107353   
O223     O      0.762570000000     0.491000000000     0.966420000000    -0.0926352  
O224     O      0.745850000000     0.534530000000     0.917270000000    -0.0987566  
O225     O      0.932020000000     0.473360000000     0.951270000000    -0.106758   
O226     O      0.996930000000     0.473010000000     0.921140000000    -0.111512   
O227     O      0.761330000000     0.340010000000     0.707530000000    -0.0944259  
O228     O      0.748660000000     0.276570000000     0.752600000000    -0.0795981  
O229     O      0.704040000000     0.913070000000     0.306490000000    -0.50223    
O230     O      0.861950000000     0.991560000000     0.388350000000    -0.485517   
O231     O      0.728280000000     0.857080000000     0.286350000000    -0.477606   
O232     O      0.709460000000     0.852080000000     0.372840000000    -0.47647    
O233     O      0.784060000000     0.992570000000     0.285140000000    -0.490527   
O234     O      0.870500000000     0.915810000000     0.361640000000    -0.490659   
O235     O      0.793130000000     0.929130000000     0.336090000000    -0.879027   
O236     O      0.858460000000     0.939120000000     0.279050000000    -0.502128   
O237     O      0.809070000000     0.857200000000     0.299780000000    -0.477457   
O238     O      0.731700000000     0.932750000000     0.391460000000    -0.484242   
O239     O      0.794770000000     0.861880000000     0.387680000000    -0.48183    
O240     O      0.863460000000     0.022110000000     0.304280000000    -0.499724   
O241     O      0.807970000000     0.017900000000     0.371140000000    -0.473207   
O242     O      0.944060000000     0.677210000000     0.124560000000    -0.486726   
O243     O      0.033260000000     0.836520000000     0.038320000000    -0.503625   
O244     O      0.895010000000     0.710150000000     0.141520000000    -0.497715   
O245     O      0.891870000000     0.675370000000     0.059620000000    -0.504319   
O246     O      0.021550000000     0.758090000000     0.144580000000    -0.50723    
O247     O      0.955360000000     0.841620000000     0.049350000000    -0.489292   
O248     O      0.965200000000     0.767630000000     0.088590000000    -0.871487   
O249     O      0.967830000000     0.839080000000     0.138040000000    -0.503008   
O250     O      0.891640000000     0.787620000000     0.111620000000    -0.507244   
O251     O      0.969530000000     0.701620000000     0.037320000000    -0.49425    
O252     O      0.902110000000     0.759360000000     0.030660000000    -0.502161   
O253     O      0.049560000000     0.840600000000     0.126560000000    -0.49381    
O254     O      0.052990000000     0.778020000000     0.060670000000    -0.499274   
O255     O      0.734570000000     0.831460000000     0.962410000000    -0.0945756  
O256     O      0.687580000000     0.768650000000     0.916180000000    -0.0924281  
O257     O      0.615800000000     0.761090000000     0.298820000000    -0.10085    
O258     O      0.625750000000     0.719470000000     0.244370000000    -0.0979866  
O259     O      0.786670000000     0.098710000000     0.287180000000    -0.101573   
O260     O      0.739920000000     0.081070000000     0.228830000000    -0.107324   
O261     O      0.762570000000     0.991000000000     0.466420000000    -0.0927559  
O262     O      0.745850000000     0.034530000000     0.417270000000    -0.0987094  
O263     O      0.932020000000     0.973350000000     0.451270000000    -0.106821   
O264     O      0.996920000000     0.973010000000     0.421140000000    -0.11155    
O265     O      0.761330000000     0.840010000000     0.207530000000    -0.094437   
O266     O      0.748660000000     0.776570000000     0.252600000000    -0.0796017  
O267     O      0.704040000000     0.913070000000     0.806490000000    -0.502235   
O268     O      0.861950000000     0.991560000000     0.888350000000    -0.485413   
O269     O      0.728280000000     0.857080000000     0.786350000000    -0.477618   
O270     O      0.709460000000     0.852080000000     0.872840000000    -0.476477   
O271     O      0.784060000000     0.992570000000     0.785140000000    -0.490537   
O272     O      0.870500000000     0.915810000000     0.861640000000    -0.490621   
O273     O      0.793130000000     0.929130000000     0.836090000000    -0.879031   
O274     O      0.858460000000     0.939120000000     0.779050000000    -0.502296   
O275     O      0.809070000000     0.857200000000     0.799770000000    -0.477507   
O276     O      0.731700000000     0.932750000000     0.891460000000    -0.484242   
O277     O      0.794770000000     0.861880000000     0.887670000000    -0.48194    
O278     O      0.863460000000     0.022110000000     0.804280000000    -0.499785   
O279     O      0.807970000000     0.017900000000     0.871140000000    -0.473209   
O280     O      0.944060000000     0.677210000000     0.624560000000    -0.486726   
O281     O      0.033260000000     0.836520000000     0.538320000000    -0.503638   
O282     O      0.895010000000     0.710150000000     0.641520000000    -0.497718   
O283     O      0.891870000000     0.675370000000     0.559610000000    -0.504375   
O284     O      0.021550000000     0.758090000000     0.644580000000    -0.507232   
O285     O      0.955360000000     0.841620000000     0.549350000000    -0.489291   
O286     O      0.965200000000     0.767630000000     0.588590000000    -0.871484   
O287     O      0.967830000000     0.839080000000     0.638040000000    -0.503007   
O288     O      0.891640000000     0.787620000000     0.611620000000    -0.507235   
O289     O      0.969530000000     0.701620000000     0.537320000000    -0.494271   
O290     O      0.902110000000     0.759360000000     0.530660000000    -0.50214    
O291     O      0.049560000000     0.840600000000     0.626560000000    -0.493817   
O292     O      0.052990000000     0.778020000000     0.560660000000    -0.499303   
O293     O      0.734570000000     0.831460000000     0.462410000000    -0.0945939  
O294     O      0.687580000000     0.768650000000     0.416180000000    -0.0924349  
O295     O      0.615800000000     0.761090000000     0.798820000000    -0.10085    
O296     O      0.625750000000     0.719470000000     0.744370000000    -0.0979845  
O297     O      0.786670000000     0.098710000000     0.787170000000    -0.101572   
O298     O      0.739920000000     0.081070000000     0.728830000000    -0.107322   
O299     O      0.762570000000     0.991000000000     0.966420000000    -0.0927278  
O300     O      0.745850000000     0.034530000000     0.917270000000    -0.0987028  
O301     O      0.932020000000     0.973350000000     0.951270000000    -0.1068     
O302     O      0.996920000000     0.973010000000     0.921140000000    -0.111541   
O303     O      0.761330000000     0.840010000000     0.707530000000    -0.0944327  
O304     O      0.748660000000     0.776570000000     0.752600000000    -0.0795961  


