data_structure

_audit_creation_method RASPA-1.0
_audit_creation_date 2023-6-4
_audit_author_name 'Poobodin Mano'

_cell_length_a    30.0011
_cell_length_b    30.1691
_cell_length_c    29.0955
_cell_angle_alpha 90
_cell_angle_beta  90
_cell_angle_gamma 120
_cell_volume      22806.4

_symmetry_cell_setting          triclinic
_symmetry_space_group_name_Hall 'P 1'
_symmetry_space_group_name_H-M  'P 1'
_symmetry_Int_Tables_number     1

_symmetry_equiv_pos_as_xyz 'x,y,z'

loop_
_atom_site_label
_atom_site_type_symbol
_atom_site_fract_x
_atom_site_fract_y
_atom_site_fract_z
_atom_site_charge
C1       C      0.338620000000     0.372370000000     0.308220000000     0.49093    
C2       C      0.317690000000     0.357480000000     0.431270000000     0.524891   
C3       C      0.184140000000     0.363410000000     0.415350000000     0.538286   
C4       C      0.334880000000     0.507660000000     0.313920000000     0.53266    
C5       C      0.324300000000     0.492420000000     0.434610000000     0.527063   
C6       C      0.205600000000     0.366790000000     0.294550000000     0.534911   
C7       C      0.419180000000     0.298260000000     0.182970000000     0.528429   
C8       C      0.397010000000     0.283190000000     0.060020000000     0.529126   
C9       C      0.404100000000     0.152510000000     0.060810000000     0.525821   
C10      C      0.548930000000     0.291430000000     0.169270000000     0.528215   
C11      C      0.532500000000     0.289480000000     0.045750000000     0.528093   
C12      C      0.412060000000     0.159990000000     0.182350000000     0.527195   
C13      C      0.576470000000     0.266360000000     0.486570000000     0.000882631
C14      C      0.560800000000     0.338730000000     0.973020000000     0.0145628  
C15      C      0.132220000000     0.298090000000     0.471000000000    -0.0121594  
C16      C      0.116270000000     0.372900000000     0.955220000000    -0.0560665  
C17      C      0.114230000000     0.403140000000     0.414420000000     0.30773    
C18      C      0.607160000000     0.362460000000     0.220240000000    -0.00555992 
C19      C      0.600970000000     0.275980000000     0.225140000000     0.0131068  
C20      C      0.164660000000     0.387740000000     0.231330000000    -0.0064194  
C21      C      0.159290000000     0.302220000000     0.231670000000    -0.0545401  
C22      C      0.171860000000     0.265350000000     0.255970000000     0.316418   
C23      C      0.326150000000     0.574840000000     0.273960000000    -0.00299767 
C24      C      0.412060000000     0.080650000000     0.280560000000     0.0160929  
C25      C      0.338520000000     0.595150000000     0.224890000000    -0.00954733 
C26      C      0.424200000000     0.098100000000     0.230180000000    -0.0575148  
C27      C      0.481720000000     0.132610000000     0.225260000000     0.313599   
C28      C      0.414850000000     0.096760000000     0.005290000000    -0.00419942 
C29      C      0.326100000000     0.078800000000     0.030440000000     0.0138589  
C30      C      0.386040000000     0.038930000000     0.496680000000    -0.00888395 
C31      C      0.306710000000     0.547830000000     0.485450000000    -0.0567217  
C32      C      0.250680000000     0.508200000000     0.991900000000     0.314123   
C33      C      0.410890000000     0.348820000000     0.502530000000    -0.00316002 
C34      C      0.330560000000     0.262490000000     0.000330000000     0.0131515  
C35      C      0.379090000000     0.374360000000     0.493340000000    -0.00827252 
C36      C      0.298320000000     0.288320000000     0.989920000000    -0.0562663  
C37      C      0.252200000000     0.252140000000     0.961200000000     0.315111   
C38      C      0.362080000000     0.279780000000     0.249700000000    -0.00352681 
C39      C      0.434450000000     0.369670000000     0.235060000000     0.00862259 
C40      C      0.325320000000     0.300120000000     0.258220000000    -0.00972469 
C41      C      0.395940000000     0.389050000000     0.241230000000    -0.0369261  
C42      C      0.420510000000     0.443090000000     0.257850000000     0.23083    
C43      C      0.338620000000     0.372370000000     0.808220000000     0.49093    
C44      C      0.317690000000     0.357480000000     0.931270000000     0.524884   
C45      C      0.184140000000     0.363410000000     0.915350000000     0.538283   
C46      C      0.334880000000     0.507660000000     0.813920000000     0.532735   
C47      C      0.324300000000     0.492420000000     0.934600000000     0.52726    
C48      C      0.205600000000     0.366790000000     0.794550000000     0.534917   
C49      C      0.419180000000     0.298260000000     0.682970000000     0.528422   
C50      C      0.397010000000     0.283190000000     0.560020000000     0.529147   
C51      C      0.404100000000     0.152510000000     0.560810000000     0.525812   
C52      C      0.548930000000     0.291430000000     0.669270000000     0.528212   
C53      C      0.532500000000     0.289480000000     0.545750000000     0.528088   
C54      C      0.412060000000     0.159990000000     0.682350000000     0.527194   
C55      C      0.576470000000     0.266360000000     0.986570000000     0.00078627 
C56      C      0.560800000000     0.338730000000     0.473020000000     0.0145922  
C57      C      0.132220000000     0.298090000000     0.971000000000    -0.0121976  
C58      C      0.116270000000     0.372900000000     0.455220000000    -0.0560388  
C59      C      0.114230000000     0.403140000000     0.914420000000     0.307736   
C60      C      0.607160000000     0.362460000000     0.720240000000    -0.00555129 
C61      C      0.600970000000     0.275980000000     0.725140000000     0.0130971  
C62      C      0.164660000000     0.387740000000     0.731330000000    -0.00644356 
C63      C      0.159290000000     0.302220000000     0.731670000000    -0.0545111  
C64      C      0.171860000000     0.265350000000     0.755970000000     0.316334   
C65      C      0.326150000000     0.574840000000     0.773960000000    -0.00299456 
C66      C      0.412060000000     0.080650000000     0.780560000000     0.0160962  
C67      C      0.338520000000     0.595150000000     0.724890000000    -0.00955338 
C68      C      0.424200000000     0.098100000000     0.730180000000    -0.057516   
C69      C      0.481720000000     0.132610000000     0.725260000000     0.313599   
C70      C      0.414850000000     0.096760000000     0.505290000000    -0.00433949 
C71      C      0.326100000000     0.078800000000     0.530440000000     0.0137935  
C72      C      0.386040000000     0.038930000000     0.996680000000    -0.0090239  
C73      C      0.306710000000     0.547830000000     0.985450000000    -0.0567328  
C74      C      0.250680000000     0.508200000000     0.491900000000     0.314195   
C75      C      0.410890000000     0.348820000000     0.002530000000    -0.0030196  
C76      C      0.330560000000     0.262490000000     0.500340000000     0.0130438  
C77      C      0.379090000000     0.374360000000     0.993340000000    -0.00841629 
C78      C      0.298320000000     0.288320000000     0.489910000000    -0.0561616  
C79      C      0.252200000000     0.252140000000     0.461200000000     0.315093   
C80      C      0.362080000000     0.279780000000     0.749700000000    -0.003532   
C81      C      0.434450000000     0.369670000000     0.735070000000     0.00861017 
C82      C      0.325320000000     0.300120000000     0.758220000000    -0.00972193 
C83      C      0.395940000000     0.389050000000     0.741230000000    -0.0369216  
C84      C      0.420510000000     0.443090000000     0.757850000000     0.230828   
C85      C      0.338620000000     0.872370000000     0.308220000000     0.490932   
C86      C      0.317690000000     0.857480000000     0.431270000000     0.525029   
C87      C      0.184140000000     0.863410000000     0.415350000000     0.538297   
C88      C      0.334880000000     0.007660000000     0.313920000000     0.532528   
C89      C      0.324300000000     0.992420000000     0.434610000000     0.527177   
C90      C      0.205600000000     0.866790000000     0.294550000000     0.534928   
C91      C      0.419180000000     0.798260000000     0.182970000000     0.528628   
C92      C      0.397010000000     0.783190000000     0.060020000000     0.529125   
C93      C      0.404100000000     0.652510000000     0.060810000000     0.525817   
C94      C      0.548930000000     0.791430000000     0.169270000000     0.528212   
C95      C      0.532500000000     0.789480000000     0.045750000000     0.528087   
C96      C      0.412060000000     0.659990000000     0.182350000000     0.527066   
C97      C      0.576480000000     0.766360000000     0.486570000000     0.000840332
C98      C      0.560800000000     0.838730000000     0.973020000000     0.0145847  
C99      C      0.132220000000     0.798090000000     0.471000000000    -0.0121658  
C100     C      0.116270000000     0.872900000000     0.955220000000    -0.0560735  
C101     C      0.114230000000     0.903140000000     0.414420000000     0.307734   
C102     C      0.607160000000     0.862460000000     0.220240000000    -0.00555864 
C103     C      0.600960000000     0.775980000000     0.225140000000     0.0131294  
C104     C      0.164660000000     0.887740000000     0.231330000000    -0.00642168 
C105     C      0.159290000000     0.802220000000     0.231670000000    -0.0545392  
C106     C      0.171860000000     0.765350000000     0.255970000000     0.316418   
C107     C      0.326150000000     0.074840000000     0.273960000000    -0.00301756 
C108     C      0.412060000000     0.580650000000     0.280560000000     0.0161462  
C109     C      0.338520000000     0.095150000000     0.224890000000    -0.00953507 
C110     C      0.424210000000     0.598100000000     0.230180000000    -0.0576276  
C111     C      0.481720000000     0.632610000000     0.225260000000     0.313663   
C112     C      0.414850000000     0.596760000000     0.005290000000    -0.0041947  
C113     C      0.326100000000     0.578800000000     0.030440000000     0.0138656  
C114     C      0.386040000000     0.538930000000     0.496680000000    -0.00888973 
C115     C      0.306710000000     0.047830000000     0.485450000000    -0.0566969  
C116     C      0.250680000000     0.008200000000     0.991900000000     0.313986   
C117     C      0.410890000000     0.848820000000     0.502530000000    -0.003164   
C118     C      0.330560000000     0.762490000000     0.000330000000     0.0131657  
C119     C      0.379090000000     0.874360000000     0.493340000000    -0.00825456 
C120     C      0.298320000000     0.788320000000     0.989920000000    -0.0562394  
C121     C      0.252190000000     0.752130000000     0.961200000000     0.315194   
C122     C      0.362080000000     0.779780000000     0.249700000000    -0.00352247 
C123     C      0.434450000000     0.869680000000     0.235060000000     0.00858318 
C124     C      0.325320000000     0.800120000000     0.258220000000    -0.00972506 
C125     C      0.395940000000     0.889050000000     0.241230000000    -0.0369001  
C126     C      0.420510000000     0.943090000000     0.257850000000     0.230802   
C127     C      0.338620000000     0.872370000000     0.808220000000     0.490933   
C128     C      0.317690000000     0.857480000000     0.931270000000     0.525023   
C129     C      0.184140000000     0.863410000000     0.915350000000     0.538294   
C130     C      0.334880000000     0.007660000000     0.813920000000     0.532604   
C131     C      0.324300000000     0.992420000000     0.934600000000     0.527374   
C132     C      0.205600000000     0.866790000000     0.794550000000     0.534934   
C133     C      0.419180000000     0.798260000000     0.682970000000     0.528621   
C134     C      0.397010000000     0.783190000000     0.560020000000     0.529145   
C135     C      0.404100000000     0.652510000000     0.560810000000     0.525808   
C136     C      0.548930000000     0.791430000000     0.669270000000     0.528209   
C137     C      0.532500000000     0.789480000000     0.545750000000     0.528082   
C138     C      0.412060000000     0.659990000000     0.682350000000     0.527066   
C139     C      0.576480000000     0.766360000000     0.986570000000     0.000743861
C140     C      0.560800000000     0.838730000000     0.473020000000     0.0146141  
C141     C      0.132220000000     0.798090000000     0.971000000000    -0.0122041  
C142     C      0.116270000000     0.872900000000     0.455220000000    -0.0560458  
C143     C      0.114230000000     0.903140000000     0.914420000000     0.30774    
C144     C      0.607160000000     0.862460000000     0.720240000000    -0.00555001 
C145     C      0.600960000000     0.775980000000     0.725140000000     0.0131197  
C146     C      0.164660000000     0.887740000000     0.731330000000    -0.00644585 
C147     C      0.159290000000     0.802220000000     0.731670000000    -0.0545102  
C148     C      0.171860000000     0.765350000000     0.755970000000     0.316335   
C149     C      0.326150000000     0.074840000000     0.773960000000    -0.00301444 
C150     C      0.412060000000     0.580650000000     0.780560000000     0.0161494  
C151     C      0.338520000000     0.095150000000     0.724890000000    -0.00954112 
C152     C      0.424210000000     0.598100000000     0.730180000000    -0.0576288  
C153     C      0.481720000000     0.632610000000     0.725260000000     0.313663   
C154     C      0.414850000000     0.596760000000     0.505290000000    -0.00433501 
C155     C      0.326100000000     0.578800000000     0.530440000000     0.0138     
C156     C      0.386040000000     0.538930000000     0.996680000000    -0.00902993 
C157     C      0.306710000000     0.047830000000     0.985450000000    -0.0567079  
C158     C      0.250680000000     0.008200000000     0.491900000000     0.314058   
C159     C      0.410890000000     0.848820000000     0.002530000000    -0.00302343 
C160     C      0.330560000000     0.762490000000     0.500340000000     0.0130578  
C161     C      0.379090000000     0.874360000000     0.993340000000    -0.00839845 
C162     C      0.298320000000     0.788320000000     0.489910000000    -0.0561345  
C163     C      0.252190000000     0.752130000000     0.461200000000     0.315175   
C164     C      0.362080000000     0.779780000000     0.749700000000    -0.00352766 
C165     C      0.434450000000     0.869680000000     0.735070000000     0.00857077 
C166     C      0.325320000000     0.800120000000     0.758220000000    -0.00972229 
C167     C      0.395940000000     0.889050000000     0.741230000000    -0.0368956  
C168     C      0.420510000000     0.943090000000     0.757850000000     0.2308     
C169     C      0.838630000000     0.372370000000     0.308220000000     0.49083    
C170     C      0.817700000000     0.357480000000     0.431270000000     0.524967   
C171     C      0.684140000000     0.363410000000     0.415350000000     0.538291   
C172     C      0.834880000000     0.507660000000     0.313920000000     0.53266    
C173     C      0.824310000000     0.492420000000     0.434610000000     0.527058   
C174     C      0.705600000000     0.366790000000     0.294550000000     0.534911   
C175     C      0.919180000000     0.298260000000     0.182970000000     0.528556   
C176     C      0.897000000000     0.283190000000     0.060020000000     0.52882    
C177     C      0.904100000000     0.152510000000     0.060810000000     0.525714   
C178     C      0.048930000000     0.291430000000     0.169270000000     0.527698   
C179     C      0.032500000000     0.289480000000     0.045750000000     0.527604   
C180     C      0.912060000000     0.159990000000     0.182350000000     0.526896   
C181     C      0.076480000000     0.266360000000     0.486570000000     0.000745205
C182     C      0.060800000000     0.338730000000     0.973020000000     0.014442   
C183     C      0.632220000000     0.298090000000     0.471000000000    -0.0122329  
C184     C      0.616270000000     0.372900000000     0.955220000000    -0.0561616  
C185     C      0.614230000000     0.403140000000     0.414420000000     0.307703   
C186     C      0.107160000000     0.362460000000     0.220240000000    -0.00562773 
C187     C      0.100960000000     0.275980000000     0.225140000000     0.0130691  
C188     C      0.664660000000     0.387740000000     0.231330000000    -0.00645142 
C189     C      0.659290000000     0.302220000000     0.231670000000    -0.0545686  
C190     C      0.671860000000     0.265350000000     0.255970000000     0.316408   
C191     C      0.826150000000     0.574840000000     0.273960000000    -0.00302077 
C192     C      0.912050000000     0.080650000000     0.280560000000     0.0158089  
C193     C      0.838520000000     0.595150000000     0.224890000000    -0.00953422 
C194     C      0.924210000000     0.098100000000     0.230180000000    -0.0564265  
C195     C      0.981720000000     0.132610000000     0.225260000000     0.308977   
C196     C      0.914850000000     0.096760000000     0.005290000000    -0.00415902 
C197     C      0.826090000000     0.078800000000     0.030440000000     0.0137755  
C198     C      0.886040000000     0.038930000000     0.496680000000    -0.00890647 
C199     C      0.806710000000     0.547830000000     0.485450000000    -0.0566637  
C200     C      0.750680000000     0.508200000000     0.991900000000     0.314096   
C201     C      0.910890000000     0.348820000000     0.502530000000    -0.00309276 
C202     C      0.830570000000     0.262490000000     0.000330000000     0.0131601  
C203     C      0.879090000000     0.374360000000     0.493340000000    -0.00830633 
C204     C      0.798320000000     0.288320000000     0.989920000000    -0.0562776  
C205     C      0.752200000000     0.252140000000     0.961200000000     0.315117   
C206     C      0.862080000000     0.279780000000     0.249700000000    -0.0035267  
C207     C      0.934450000000     0.369670000000     0.235060000000     0.00871515 
C208     C      0.825320000000     0.300120000000     0.258220000000    -0.00972943 
C209     C      0.895940000000     0.389050000000     0.241230000000    -0.0370111  
C210     C      0.920510000000     0.443090000000     0.257850000000     0.230769   
C211     C      0.838630000000     0.372370000000     0.808220000000     0.49083    
C212     C      0.817700000000     0.357480000000     0.931270000000     0.52496    
C213     C      0.684140000000     0.363410000000     0.915350000000     0.538287   
C214     C      0.834880000000     0.507660000000     0.813920000000     0.532736   
C215     C      0.824310000000     0.492420000000     0.934600000000     0.527255   
C216     C      0.705600000000     0.366790000000     0.794550000000     0.534917   
C217     C      0.919180000000     0.298260000000     0.682970000000     0.528549   
C218     C      0.897000000000     0.283190000000     0.560020000000     0.528841   
C219     C      0.904100000000     0.152510000000     0.560810000000     0.525705   
C220     C      0.048930000000     0.291430000000     0.669270000000     0.527695   
C221     C      0.032500000000     0.289480000000     0.545750000000     0.527599   
C222     C      0.912060000000     0.159990000000     0.682350000000     0.526896   
C223     C      0.076480000000     0.266360000000     0.986570000000     0.000648607
C224     C      0.060800000000     0.338730000000     0.473020000000     0.0144715  
C225     C      0.632220000000     0.298090000000     0.971000000000    -0.0122711  
C226     C      0.616270000000     0.372900000000     0.455220000000    -0.0561339  
C227     C      0.614230000000     0.403140000000     0.914420000000     0.307709   
C228     C      0.107160000000     0.362460000000     0.720240000000    -0.00561909 
C229     C      0.100960000000     0.275980000000     0.725140000000     0.0130594  
C230     C      0.664660000000     0.387740000000     0.731330000000    -0.00647558 
C231     C      0.659290000000     0.302220000000     0.731670000000    -0.0545395  
C232     C      0.671860000000     0.265350000000     0.755970000000     0.316324   
C233     C      0.826150000000     0.574840000000     0.773960000000    -0.00301766 
C234     C      0.912050000000     0.080650000000     0.780560000000     0.0158121  
C235     C      0.838520000000     0.595150000000     0.724890000000    -0.00954025 
C236     C      0.924210000000     0.098100000000     0.730180000000    -0.0564278  
C237     C      0.981720000000     0.132610000000     0.725260000000     0.308978   
C238     C      0.914850000000     0.096760000000     0.505290000000    -0.00429873 
C239     C      0.826090000000     0.078800000000     0.530440000000     0.0137102  
C240     C      0.886040000000     0.038930000000     0.996680000000    -0.00904603 
C241     C      0.806710000000     0.547830000000     0.985450000000    -0.0566747  
C242     C      0.750680000000     0.508200000000     0.491900000000     0.314168   
C243     C      0.910890000000     0.348820000000     0.002530000000    -0.00295273 
C244     C      0.830570000000     0.262490000000     0.500340000000     0.0130528  
C245     C      0.879090000000     0.374360000000     0.993340000000    -0.00844965 
C246     C      0.798320000000     0.288320000000     0.489910000000    -0.0561733  
C247     C      0.752200000000     0.252140000000     0.461200000000     0.315099   
C248     C      0.862080000000     0.279780000000     0.749700000000    -0.00353188 
C249     C      0.934450000000     0.369670000000     0.735070000000     0.00870273 
C250     C      0.825320000000     0.300120000000     0.758220000000    -0.00972666 
C251     C      0.895940000000     0.389050000000     0.741230000000    -0.0370066  
C252     C      0.920510000000     0.443090000000     0.757850000000     0.230766   
C253     C      0.838620000000     0.872370000000     0.308220000000     0.490922   
C254     C      0.817690000000     0.857480000000     0.431270000000     0.524863   
C255     C      0.684140000000     0.863410000000     0.415350000000     0.538287   
C256     C      0.834880000000     0.007660000000     0.313920000000     0.532527   
C257     C      0.824300000000     0.992420000000     0.434610000000     0.527166   
C258     C      0.705600000000     0.866790000000     0.294550000000     0.534917   
C259     C      0.919180000000     0.798260000000     0.182970000000     0.52835    
C260     C      0.897000000000     0.783190000000     0.060020000000     0.528822   
C261     C      0.904100000000     0.652510000000     0.060810000000     0.525531   
C262     C      0.048930000000     0.791430000000     0.169270000000     0.527693   
C263     C      0.032500000000     0.789480000000     0.045750000000     0.527605   
C264     C      0.912060000000     0.659990000000     0.182350000000     0.52694    
C265     C      0.076480000000     0.766360000000     0.486570000000     0.000757651
C266     C      0.060800000000     0.838730000000     0.973020000000     0.0144652  
C267     C      0.632220000000     0.798090000000     0.471000000000    -0.0122162  
C268     C      0.616270000000     0.872900000000     0.955220000000    -0.0561677  
C269     C      0.614230000000     0.903140000000     0.414420000000     0.307708   
C270     C      0.107160000000     0.862460000000     0.220240000000    -0.00562538 
C271     C      0.100960000000     0.775980000000     0.225140000000     0.0130663  
C272     C      0.664660000000     0.887740000000     0.231330000000    -0.00645458 
C273     C      0.659290000000     0.802220000000     0.231670000000    -0.0545748  
C274     C      0.671860000000     0.765350000000     0.255970000000     0.316409   
C275     C      0.826150000000     0.074840000000     0.273960000000    -0.0030163  
C276     C      0.912060000000     0.580650000000     0.280560000000     0.0157454  
C277     C      0.838520000000     0.095150000000     0.224890000000    -0.00958773 
C278     C      0.924210000000     0.598100000000     0.230180000000    -0.05642    
C279     C      0.981720000000     0.632610000000     0.225260000000     0.308961   
C280     C      0.914860000000     0.596760000000     0.005290000000    -0.00424313 
C281     C      0.826090000000     0.578800000000     0.030440000000     0.0137693  
C282     C      0.886040000000     0.538930000000     0.496680000000    -0.00888572 
C283     C      0.806710000000     0.047830000000     0.485450000000    -0.0566532  
C284     C      0.750680000000     0.008200000000     0.991900000000     0.313961   
C285     C      0.910890000000     0.848820000000     0.502530000000    -0.0030891  
C286     C      0.830570000000     0.762490000000     0.000330000000     0.0131718  
C287     C      0.879090000000     0.874360000000     0.493340000000    -0.00831709 
C288     C      0.798320000000     0.788320000000     0.989920000000    -0.0562499  
C289     C      0.752190000000     0.752130000000     0.961200000000     0.315202   
C290     C      0.862080000000     0.779780000000     0.249700000000    -0.00353413 
C291     C      0.934460000000     0.869680000000     0.235060000000     0.00861212 
C292     C      0.825320000000     0.800120000000     0.258220000000    -0.00972962 
C293     C      0.895940000000     0.889050000000     0.241230000000    -0.0369586  
C294     C      0.920510000000     0.943090000000     0.257850000000     0.230729   
C295     C      0.838620000000     0.872370000000     0.808220000000     0.490923   
C296     C      0.817690000000     0.857480000000     0.931270000000     0.524857   
C297     C      0.684140000000     0.863410000000     0.915350000000     0.538284   
C298     C      0.834880000000     0.007660000000     0.813920000000     0.532602   
C299     C      0.824300000000     0.992420000000     0.934600000000     0.527362   
C300     C      0.705600000000     0.866790000000     0.794550000000     0.534923   
C301     C      0.919180000000     0.798260000000     0.682970000000     0.528343   
C302     C      0.897000000000     0.783190000000     0.560020000000     0.528843   
C303     C      0.904100000000     0.652510000000     0.560810000000     0.525522   
C304     C      0.048930000000     0.791430000000     0.669270000000     0.52769    
C305     C      0.032500000000     0.789480000000     0.545750000000     0.527599   
C306     C      0.912060000000     0.659990000000     0.682350000000     0.52694    
C307     C      0.076480000000     0.766360000000     0.986570000000     0.000660949
C308     C      0.060800000000     0.838730000000     0.473020000000     0.0144947  
C309     C      0.632220000000     0.798090000000     0.971000000000    -0.0122544  
C310     C      0.616270000000     0.872900000000     0.455220000000    -0.05614    
C311     C      0.614230000000     0.903140000000     0.914420000000     0.307714   
C312     C      0.107160000000     0.862460000000     0.720240000000    -0.00561675 
C313     C      0.100960000000     0.775980000000     0.725140000000     0.0130566  
C314     C      0.664660000000     0.887740000000     0.731330000000    -0.00647875 
C315     C      0.659290000000     0.802220000000     0.731670000000    -0.0545457  
C316     C      0.671860000000     0.765350000000     0.755970000000     0.316325   
C317     C      0.826150000000     0.074840000000     0.773960000000    -0.00301318 
C318     C      0.912060000000     0.580650000000     0.780560000000     0.0157486  
C319     C      0.838520000000     0.095150000000     0.724890000000    -0.00959376 
C320     C      0.924210000000     0.598100000000     0.730180000000    -0.0564213  
C321     C      0.981720000000     0.632610000000     0.725260000000     0.308962   
C322     C      0.914860000000     0.596760000000     0.505290000000    -0.0043831  
C323     C      0.826090000000     0.578800000000     0.530440000000     0.0137038  
C324     C      0.886040000000     0.538930000000     0.996680000000    -0.00902554 
C325     C      0.806710000000     0.047830000000     0.985450000000    -0.0566641  
C326     C      0.750680000000     0.008200000000     0.491900000000     0.314032   
C327     C      0.910890000000     0.848820000000     0.002530000000    -0.00294891 
C328     C      0.830570000000     0.762490000000     0.500340000000     0.0130642  
C329     C      0.879090000000     0.874360000000     0.993340000000    -0.00846054 
C330     C      0.798320000000     0.788320000000     0.489910000000    -0.0561454  
C331     C      0.752190000000     0.752130000000     0.461200000000     0.315184   
C332     C      0.862080000000     0.779780000000     0.749700000000    -0.00353931 
C333     C      0.934460000000     0.869680000000     0.735070000000     0.00859971 
C334     C      0.825320000000     0.800120000000     0.758220000000    -0.00972686 
C335     C      0.895940000000     0.889050000000     0.741230000000    -0.0369541  
C336     C      0.920510000000     0.943090000000     0.757850000000     0.230727   
Fe1      Fe     0.252850000000     0.346410000000     0.363350000000     1.3807     
Fe2      Fe     0.252450000000     0.442350000000     0.363230000000     1.36892    
Fe3      Fe     0.348820000000     0.441360000000     0.372550000000     1.33819    
Fe4      Fe     0.388620000000     0.214290000000     0.123900000000     1.36215    
Fe5      Fe     0.484790000000     0.214800000000     0.113450000000     1.36434    
Fe6      Fe     0.484320000000     0.310780000000     0.113520000000     1.35625    
Fe7      Fe     0.252850000000     0.346410000000     0.863350000000     1.38071    
Fe8      Fe     0.252450000000     0.442350000000     0.863230000000     1.36901    
Fe9      Fe     0.348820000000     0.441360000000     0.872550000000     1.3382     
Fe10     Fe     0.388620000000     0.214290000000     0.623900000000     1.36215    
Fe11     Fe     0.484790000000     0.214800000000     0.613450000000     1.36434    
Fe12     Fe     0.484320000000     0.310780000000     0.613520000000     1.3562     
Fe13     Fe     0.252850000000     0.846410000000     0.363350000000     1.38073    
Fe14     Fe     0.252450000000     0.942350000000     0.363230000000     1.36913    
Fe15     Fe     0.348820000000     0.941360000000     0.372550000000     1.33817    
Fe16     Fe     0.388620000000     0.714290000000     0.123900000000     1.36215    
Fe17     Fe     0.484790000000     0.714800000000     0.113450000000     1.36425    
Fe18     Fe     0.484320000000     0.810780000000     0.113520000000     1.35624    
Fe19     Fe     0.252850000000     0.846410000000     0.863350000000     1.38074    
Fe20     Fe     0.252450000000     0.942350000000     0.863230000000     1.36921    
Fe21     Fe     0.348820000000     0.941360000000     0.872550000000     1.33818    
Fe22     Fe     0.388620000000     0.714290000000     0.623900000000     1.36214    
Fe23     Fe     0.484790000000     0.714800000000     0.613450000000     1.36425    
Fe24     Fe     0.484320000000     0.810780000000     0.613520000000     1.35619    
Fe25     Fe     0.752850000000     0.346410000000     0.363350000000     1.38068    
Fe26     Fe     0.752450000000     0.442350000000     0.363230000000     1.36908    
Fe27     Fe     0.848820000000     0.441360000000     0.372550000000     1.33798    
Fe28     Fe     0.888620000000     0.214290000000     0.123900000000     1.36199    
Fe29     Fe     0.984790000000     0.214800000000     0.113450000000     1.36118    
Fe30     Fe     0.984320000000     0.310780000000     0.113520000000     1.35317    
Fe31     Fe     0.752850000000     0.346410000000     0.863350000000     1.38069    
Fe32     Fe     0.752450000000     0.442350000000     0.863230000000     1.36916    
Fe33     Fe     0.848820000000     0.441360000000     0.872550000000     1.33799    
Fe34     Fe     0.888620000000     0.214290000000     0.623900000000     1.36198    
Fe35     Fe     0.984790000000     0.214800000000     0.613450000000     1.36118    
Fe36     Fe     0.984320000000     0.310780000000     0.613520000000     1.35312    
Fe37     Fe     0.752850000000     0.846410000000     0.363350000000     1.38061    
Fe38     Fe     0.752450000000     0.942350000000     0.363230000000     1.36911    
Fe39     Fe     0.848820000000     0.941360000000     0.372550000000     1.33803    
Fe40     Fe     0.888620000000     0.714290000000     0.123900000000     1.36196    
Fe41     Fe     0.984790000000     0.714800000000     0.113450000000     1.36114    
Fe42     Fe     0.984320000000     0.810780000000     0.113520000000     1.35319    
Fe43     Fe     0.752850000000     0.846410000000     0.863350000000     1.38062    
Fe44     Fe     0.752450000000     0.942350000000     0.863230000000     1.3692     
Fe45     Fe     0.848820000000     0.941360000000     0.872550000000     1.33804    
Fe46     Fe     0.888620000000     0.714290000000     0.623900000000     1.36196    
Fe47     Fe     0.984790000000     0.714800000000     0.613450000000     1.36114    
Fe48     Fe     0.984320000000     0.810780000000     0.613520000000     1.35314    
H1       H      0.157090000000     0.311830000000     0.002090000000     0.0575007  
H2       H      0.573230000000     0.237290000000     0.011900000000     0.0465911  
H3       H      0.138860000000     0.400090000000     0.983120000000     0.0762591  
H4       H      0.142920000000     0.272780000000     0.451970000000     0.0614245  
H5       H      0.552740000000     0.245420000000     0.456190000000     0.045988   
H6       H      0.534660000000     0.318690000000     0.443570000000     0.0479067  
H7       H      0.547490000000     0.363450000000     0.989310000000     0.0422754  
H8       H      0.124600000000     0.472150000000     0.394470000000     0.183009   
H9       H      0.186090000000     0.399150000000     0.198240000000     0.0442963  
H10      H      0.600710000000     0.387500000000     0.196380000000     0.045796   
H11      H      0.176830000000     0.310100000000     0.196720000000     0.0653528  
H12      H      0.176680000000     0.423450000000     0.251220000000     0.0479168  
H13      H      0.586310000000     0.359730000000     0.252660000000     0.0542695  
H14      H      0.581860000000     0.266080000000     0.259360000000     0.0703285  
H15      H      0.588220000000     0.240010000000     0.205390000000     0.0508738  
H16      H      0.158080000000     0.221890000000     0.313310000000     0.176098   
H17      H      0.319600000000     0.561950000000     0.201070000000     0.0424406  
H18      H      0.283970000000     0.548360000000     0.277100000000     0.0399552  
H19      H      0.412070000000     0.063350000000     0.208720000000     0.0702435  
H20      H      0.320780000000     0.119340000000     0.218580000000     0.0402533  
H21      H      0.336350000000     0.607760000000     0.297300000000     0.0415347  
H22      H      0.427720000000     0.114690000000     0.303530000000     0.0507115  
H23      H      0.431170000000     0.558310000000     0.289640000000     0.0434354  
H24      H      0.545060000000     0.141880000000     0.191470000000     0.181373   
H25      H      0.411730000000     0.028910000000     0.477270000000     0.0407829  
H26      H      0.425410000000     0.117270000000     0.471810000000     0.0457573  
H27      H      0.309410000000     0.074240000000     0.457480000000     0.0696477  
H28      H      0.377030000000     0.518590000000     0.530230000000     0.0488273  
H29      H      0.451240000000     0.107490000000     0.023960000000     0.0398867  
H30      H      0.314790000000     0.552280000000     0.060350000000     0.0460985  
H31      H      0.306920000000     0.102010000000     0.034960000000     0.0458841  
H32      H      0.178640000000     0.498310000000     0.992470000000     0.193841   
H33      H      0.368640000000     0.384070000000     0.527030000000     0.0460671  
H34      H      0.444820000000     0.374760000000     0.523820000000     0.0437402  
H35      H      0.284450000000     0.294470000000     0.023530000000     0.0667377  
H36      H      0.403190000000     0.411010000000     0.474780000000     0.0447998  
H37      H      0.425560000000     0.343510000000     0.469080000000     0.0460561  
H38      H      0.340620000000     0.250640000000     0.967510000000     0.0520763  
H39      H      0.307010000000     0.227390000000     0.021150000000     0.0442472  
H40      H      0.230110000000     0.215160000000     0.899860000000     0.176848   
H41      H      0.304810000000     0.296990000000     0.225490000000     0.0594386  
H42      H      0.340550000000     0.240760000000     0.234510000000     0.0466146  
H43      H      0.379520000000     0.387860000000     0.206640000000     0.0593269  
H44      H      0.296110000000     0.275390000000     0.284040000000     0.0573169  
H45      H      0.377220000000     0.276230000000     0.283560000000     0.0469221  
H46      H      0.453850000000     0.372720000000     0.268460000000     0.0466517  
H47      H      0.464200000000     0.393680000000     0.209240000000     0.0474665  
H48      H      0.477210000000     0.516450000000     0.246690000000     0.162002   
H49      H      0.157090000000     0.311830000000     0.502090000000     0.0574535  
H50      H      0.573230000000     0.237290000000     0.511900000000     0.046537   
H51      H      0.138860000000     0.400090000000     0.483130000000     0.0762592  
H52      H      0.142920000000     0.272780000000     0.951970000000     0.0614256  
H53      H      0.552740000000     0.245420000000     0.956190000000     0.0459992  
H54      H      0.534660000000     0.318690000000     0.943570000000     0.0479066  
H55      H      0.547490000000     0.363450000000     0.489310000000     0.042289   
H56      H      0.124600000000     0.472150000000     0.894470000000     0.183008   
H57      H      0.186090000000     0.399150000000     0.698250000000     0.0443031  
H58      H      0.600710000000     0.387500000000     0.696380000000     0.0457921  
H59      H      0.176830000000     0.310100000000     0.696720000000     0.0653451  
H60      H      0.176680000000     0.423450000000     0.751220000000     0.0479206  
H61      H      0.586310000000     0.359730000000     0.752660000000     0.054268   
H62      H      0.581860000000     0.266080000000     0.759360000000     0.0703316  
H63      H      0.588220000000     0.240010000000     0.705390000000     0.0508745  
H64      H      0.158080000000     0.221890000000     0.813300000000     0.176187   
H65      H      0.319600000000     0.561950000000     0.701070000000     0.0424406  
H66      H      0.283970000000     0.548360000000     0.777100000000     0.0399517  
H67      H      0.412070000000     0.063350000000     0.708720000000     0.0702421  
H68      H      0.320780000000     0.119340000000     0.718590000000     0.0402545  
H69      H      0.336350000000     0.607760000000     0.797300000000     0.0415316  
H70      H      0.427720000000     0.114690000000     0.803530000000     0.0507085  
H71      H      0.431170000000     0.558310000000     0.789640000000     0.0434318  
H72      H      0.545060000000     0.141880000000     0.691470000000     0.18137    
H73      H      0.411730000000     0.028910000000     0.977260000000     0.0407994  
H74      H      0.425410000000     0.117270000000     0.971810000000     0.0456919  
H75      H      0.309410000000     0.074240000000     0.957470000000     0.0696346  
H76      H      0.377030000000     0.518590000000     0.030230000000     0.04889    
H77      H      0.451240000000     0.107490000000     0.523960000000     0.039904   
H78      H      0.314790000000     0.552280000000     0.560340000000     0.0461073  
H79      H      0.306920000000     0.102010000000     0.534960000000     0.0458824  
H80      H      0.178640000000     0.498310000000     0.492470000000     0.19386    
H81      H      0.368640000000     0.384070000000     0.027030000000     0.0461321  
H82      H      0.444820000000     0.374760000000     0.023820000000     0.0437202  
H83      H      0.284450000000     0.294470000000     0.523520000000     0.0666813  
H84      H      0.403190000000     0.411010000000     0.974780000000     0.0448194  
H85      H      0.425560000000     0.343510000000     0.969080000000     0.0459931  
H86      H      0.340620000000     0.250640000000     0.467510000000     0.0521324  
H87      H      0.307010000000     0.227390000000     0.521150000000     0.0442482  
H88      H      0.230110000000     0.215160000000     0.399860000000     0.176848   
H89      H      0.304810000000     0.296990000000     0.725490000000     0.0594365  
H90      H      0.340550000000     0.240760000000     0.734520000000     0.0466109  
H91      H      0.379520000000     0.387860000000     0.706640000000     0.0593237  
H92      H      0.296110000000     0.275390000000     0.784040000000     0.0573142  
H93      H      0.377220000000     0.276230000000     0.783560000000     0.0469217  
H94      H      0.453850000000     0.372720000000     0.768460000000     0.0466535  
H95      H      0.464200000000     0.393680000000     0.709240000000     0.0474684  
H96      H      0.477210000000     0.516450000000     0.746690000000     0.162      
H97      H      0.157090000000     0.811830000000     0.002090000000     0.0575052  
H98      H      0.573230000000     0.737290000000     0.011900000000     0.0466085  
H99      H      0.138860000000     0.900090000000     0.983120000000     0.0762655  
H100     H      0.142920000000     0.772780000000     0.451970000000     0.0614298  
H101     H      0.552740000000     0.745420000000     0.456190000000     0.046003   
H102     H      0.534660000000     0.818690000000     0.443570000000     0.0479028  
H103     H      0.547490000000     0.863460000000     0.989310000000     0.0422718  
H104     H      0.124600000000     0.972150000000     0.394470000000     0.18303    
H105     H      0.186090000000     0.899150000000     0.198240000000     0.0443099  
H106     H      0.600710000000     0.887500000000     0.196380000000     0.045805   
H107     H      0.176830000000     0.810100000000     0.196720000000     0.0653554  
H108     H      0.176680000000     0.923450000000     0.251220000000     0.0479316  
H109     H      0.586310000000     0.859730000000     0.252660000000     0.0542719  
H110     H      0.581860000000     0.766080000000     0.259360000000     0.0703216  
H111     H      0.588220000000     0.740010000000     0.205390000000     0.0508695  
H112     H      0.158080000000     0.721890000000     0.313310000000     0.176104   
H113     H      0.319600000000     0.061950000000     0.201070000000     0.042414   
H114     H      0.283970000000     0.048350000000     0.277100000000     0.0399308  
H115     H      0.412070000000     0.563350000000     0.208720000000     0.0703007  
H116     H      0.320780000000     0.619340000000     0.218580000000     0.0402656  
H117     H      0.336350000000     0.107760000000     0.297300000000     0.0415307  
H118     H      0.427720000000     0.614680000000     0.303530000000     0.0507038  
H119     H      0.431170000000     0.058320000000     0.289640000000     0.043429   
H120     H      0.545060000000     0.641880000000     0.191470000000     0.181384   
H121     H      0.411730000000     0.528910000000     0.477270000000     0.0408199  
H122     H      0.425410000000     0.617270000000     0.471810000000     0.0457626  
H123     H      0.309410000000     0.574240000000     0.457480000000     0.0696661  
H124     H      0.377030000000     0.018590000000     0.530230000000     0.0487944  
H125     H      0.451240000000     0.607490000000     0.023960000000     0.0398954  
H126     H      0.314790000000     0.052280000000     0.060350000000     0.0460792  
H127     H      0.306920000000     0.602010000000     0.034960000000     0.0458884  
H128     H      0.178640000000     0.998310000000     0.992470000000     0.193932   
H129     H      0.368640000000     0.884080000000     0.527030000000     0.046071   
H130     H      0.444820000000     0.874760000000     0.523820000000     0.0437504  
H131     H      0.284450000000     0.794470000000     0.023530000000     0.0667346  
H132     H      0.403190000000     0.911010000000     0.474780000000     0.0448075  
H133     H      0.425560000000     0.843510000000     0.469080000000     0.0460584  
H134     H      0.340620000000     0.750630000000     0.967510000000     0.0520703  
H135     H      0.307000000000     0.727390000000     0.021150000000     0.0442405  
H136     H      0.230110000000     0.715160000000     0.899860000000     0.176859   
H137     H      0.304810000000     0.796990000000     0.225490000000     0.0594417  
H138     H      0.340550000000     0.740760000000     0.234510000000     0.0466139  
H139     H      0.379520000000     0.887860000000     0.206640000000     0.0593306  
H140     H      0.296110000000     0.775390000000     0.284040000000     0.0573193  
H141     H      0.377220000000     0.776230000000     0.283560000000     0.0469217  
H142     H      0.453850000000     0.872720000000     0.268460000000     0.0466688  
H143     H      0.464200000000     0.893680000000     0.209240000000     0.0474897  
H144     H      0.477210000000     0.016450000000     0.246690000000     0.161902   
H145     H      0.157090000000     0.811830000000     0.502090000000     0.0574579  
H146     H      0.573230000000     0.737290000000     0.511900000000     0.0465544  
H147     H      0.138860000000     0.900090000000     0.483130000000     0.0762655  
H148     H      0.142920000000     0.772780000000     0.951970000000     0.0614308  
H149     H      0.552740000000     0.745420000000     0.956190000000     0.0460142  
H150     H      0.534660000000     0.818690000000     0.943570000000     0.0479028  
H151     H      0.547490000000     0.863460000000     0.489310000000     0.0422853  
H152     H      0.124600000000     0.972150000000     0.894470000000     0.183029   
H153     H      0.186090000000     0.899150000000     0.698250000000     0.0443166  
H154     H      0.600710000000     0.887500000000     0.696380000000     0.0458012  
H155     H      0.176830000000     0.810100000000     0.696720000000     0.0653477  
H156     H      0.176680000000     0.923450000000     0.751220000000     0.0479354  
H157     H      0.586310000000     0.859730000000     0.752660000000     0.0542704  
H158     H      0.581860000000     0.766080000000     0.759360000000     0.0703248  
H159     H      0.588220000000     0.740010000000     0.705390000000     0.0508702  
H160     H      0.158080000000     0.721890000000     0.813300000000     0.176193   
H161     H      0.319600000000     0.061950000000     0.701070000000     0.042414   
H162     H      0.283970000000     0.048350000000     0.777100000000     0.0399274  
H163     H      0.412070000000     0.563350000000     0.708720000000     0.0702993  
H164     H      0.320780000000     0.619340000000     0.718590000000     0.0402667  
H165     H      0.336350000000     0.107760000000     0.797300000000     0.0415276  
H166     H      0.427720000000     0.614680000000     0.803530000000     0.0507009  
H167     H      0.431170000000     0.058320000000     0.789640000000     0.0434255  
H168     H      0.545060000000     0.641880000000     0.691470000000     0.181381   
H169     H      0.411730000000     0.528910000000     0.977260000000     0.0408364  
H170     H      0.425410000000     0.617270000000     0.971810000000     0.0456971  
H171     H      0.309410000000     0.574240000000     0.957470000000     0.069653   
H172     H      0.377030000000     0.018590000000     0.030230000000     0.0488569  
H173     H      0.451240000000     0.607490000000     0.523960000000     0.0399128  
H174     H      0.314790000000     0.052280000000     0.560340000000     0.046088   
H175     H      0.306920000000     0.602010000000     0.534960000000     0.0458866  
H176     H      0.178640000000     0.998310000000     0.492470000000     0.193951   
H177     H      0.368640000000     0.884080000000     0.027030000000     0.046136   
H178     H      0.444820000000     0.874760000000     0.023820000000     0.0437304  
H179     H      0.284450000000     0.794470000000     0.523520000000     0.0666781  
H180     H      0.403190000000     0.911010000000     0.974780000000     0.0448272  
H181     H      0.425560000000     0.843510000000     0.969080000000     0.0459953  
H182     H      0.340620000000     0.750630000000     0.467510000000     0.0521265  
H183     H      0.307000000000     0.727390000000     0.521150000000     0.0442415  
H184     H      0.230110000000     0.715160000000     0.399860000000     0.17686    
H185     H      0.304810000000     0.796990000000     0.725490000000     0.0594397  
H186     H      0.340550000000     0.740760000000     0.734520000000     0.0466102  
H187     H      0.379520000000     0.887860000000     0.706640000000     0.0593274  
H188     H      0.296110000000     0.775390000000     0.784040000000     0.0573166  
H189     H      0.377220000000     0.776230000000     0.783560000000     0.0469213  
H190     H      0.453850000000     0.872720000000     0.768460000000     0.0466706  
H191     H      0.464200000000     0.893680000000     0.709240000000     0.0474916  
H192     H      0.477210000000     0.016450000000     0.746690000000     0.161901   
H193     H      0.657090000000     0.311830000000     0.002090000000     0.0574915  
H194     H      0.073220000000     0.237290000000     0.011900000000     0.0469456  
H195     H      0.638860000000     0.400090000000     0.983120000000     0.0762327  
H196     H      0.642920000000     0.272780000000     0.451970000000     0.061346   
H197     H      0.052740000000     0.245420000000     0.456190000000     0.0464135  
H198     H      0.034660000000     0.318690000000     0.443570000000     0.048352   
H199     H      0.047490000000     0.363450000000     0.989310000000     0.0426836  
H200     H      0.624600000000     0.472150000000     0.394470000000     0.182788   
H201     H      0.686090000000     0.399150000000     0.198240000000     0.0442725  
H202     H      0.100710000000     0.387500000000     0.196380000000     0.0460874  
H203     H      0.676830000000     0.310100000000     0.196720000000     0.0653324  
H204     H      0.676680000000     0.423450000000     0.251220000000     0.0478483  
H205     H      0.086310000000     0.359730000000     0.252660000000     0.0545967  
H206     H      0.081860000000     0.266080000000     0.259360000000     0.0704714  
H207     H      0.088220000000     0.240010000000     0.205390000000     0.0510017  
H208     H      0.658080000000     0.221890000000     0.313310000000     0.175971   
H209     H      0.819600000000     0.561950000000     0.201070000000     0.0424097  
H210     H      0.783970000000     0.548360000000     0.277100000000     0.0399083  
H211     H      0.912060000000     0.063350000000     0.208720000000     0.0698516  
H212     H      0.820780000000     0.119340000000     0.218580000000     0.0402146  
H213     H      0.836350000000     0.607760000000     0.297300000000     0.0414268  
H214     H      0.927720000000     0.114690000000     0.303530000000     0.0503922  
H215     H      0.931170000000     0.558310000000     0.289640000000     0.0433341  
H216     H      0.045060000000     0.141880000000     0.191470000000     0.18099    
H217     H      0.911730000000     0.028910000000     0.477270000000     0.0405833  
H218     H      0.925410000000     0.117270000000     0.471810000000     0.0454403  
H219     H      0.809400000000     0.074240000000     0.457480000000     0.0695664  
H220     H      0.877030000000     0.518590000000     0.530230000000     0.0487436  
H221     H      0.951240000000     0.107490000000     0.023960000000     0.0395146  
H222     H      0.814790000000     0.552280000000     0.060350000000     0.0461019  
H223     H      0.806920000000     0.102010000000     0.034960000000     0.045856   
H224     H      0.678640000000     0.498310000000     0.992470000000     0.193717   
H225     H      0.868640000000     0.384070000000     0.527030000000     0.0460104  
H226     H      0.944820000000     0.374760000000     0.523820000000     0.0433534  
H227     H      0.784450000000     0.294470000000     0.023530000000     0.0667197  
H228     H      0.903190000000     0.411010000000     0.474780000000     0.0446244  
H229     H      0.925560000000     0.343510000000     0.469080000000     0.0456862  
H230     H      0.840620000000     0.250640000000     0.967510000000     0.051956   
H231     H      0.807010000000     0.227390000000     0.021150000000     0.044194   
H232     H      0.730110000000     0.215160000000     0.899860000000     0.176758   
H233     H      0.804810000000     0.296990000000     0.225490000000     0.0594293  
H234     H      0.840550000000     0.240760000000     0.234510000000     0.0465507  
H235     H      0.879520000000     0.387860000000     0.206640000000     0.0593073  
H236     H      0.796110000000     0.275390000000     0.284040000000     0.0572809  
H237     H      0.877220000000     0.276230000000     0.283560000000     0.0467448  
H238     H      0.953850000000     0.372720000000     0.268460000000     0.0462702  
H239     H      0.964200000000     0.393680000000     0.209240000000     0.0471301  
H240     H      0.977210000000     0.516450000000     0.246690000000     0.161618   
H241     H      0.657090000000     0.311830000000     0.502090000000     0.0574443  
H242     H      0.073220000000     0.237290000000     0.511900000000     0.0468915  
H243     H      0.638860000000     0.400090000000     0.483130000000     0.0762327  
H244     H      0.642920000000     0.272780000000     0.951970000000     0.0613471  
H245     H      0.052740000000     0.245420000000     0.956190000000     0.0464247  
H246     H      0.034660000000     0.318690000000     0.943570000000     0.048352   
H247     H      0.047490000000     0.363450000000     0.489310000000     0.0426973  
H248     H      0.624600000000     0.472150000000     0.894470000000     0.182787   
H249     H      0.686090000000     0.399150000000     0.698250000000     0.0442793  
H250     H      0.100710000000     0.387500000000     0.696380000000     0.0460835  
H251     H      0.676830000000     0.310100000000     0.696720000000     0.0653247  
H252     H      0.676680000000     0.423450000000     0.751220000000     0.047852   
H253     H      0.086310000000     0.359730000000     0.752660000000     0.0545952  
H254     H      0.081860000000     0.266080000000     0.759360000000     0.0704746  
H255     H      0.088220000000     0.240010000000     0.705390000000     0.0510024  
H256     H      0.658080000000     0.221890000000     0.813300000000     0.176059   
H257     H      0.819600000000     0.561950000000     0.701070000000     0.0424097  
H258     H      0.783970000000     0.548360000000     0.777100000000     0.0399049  
H259     H      0.912060000000     0.063350000000     0.708720000000     0.0698502  
H260     H      0.820780000000     0.119340000000     0.718590000000     0.0402157  
H261     H      0.836350000000     0.607760000000     0.797300000000     0.0414238  
H262     H      0.927720000000     0.114690000000     0.803530000000     0.0503892  
H263     H      0.931170000000     0.558310000000     0.789640000000     0.0433305  
H264     H      0.045060000000     0.141880000000     0.691470000000     0.180986   
H265     H      0.911730000000     0.028910000000     0.977260000000     0.0405998  
H266     H      0.925410000000     0.117270000000     0.971810000000     0.0453751  
H267     H      0.809400000000     0.074240000000     0.957470000000     0.0695532  
H268     H      0.877030000000     0.518590000000     0.030230000000     0.0488062  
H269     H      0.951240000000     0.107490000000     0.523960000000     0.0395319  
H270     H      0.814790000000     0.552280000000     0.560340000000     0.0461108  
H271     H      0.806920000000     0.102010000000     0.534960000000     0.0458543  
H272     H      0.678640000000     0.498310000000     0.492470000000     0.193735   
H273     H      0.868640000000     0.384070000000     0.027030000000     0.0460752  
H274     H      0.944820000000     0.374760000000     0.023820000000     0.0433335  
H275     H      0.784450000000     0.294470000000     0.523520000000     0.0666634  
H276     H      0.903190000000     0.411010000000     0.974780000000     0.044644   
H277     H      0.925560000000     0.343510000000     0.969080000000     0.0456234  
H278     H      0.840620000000     0.250640000000     0.467510000000     0.052012   
H279     H      0.807010000000     0.227390000000     0.521150000000     0.0441949  
H280     H      0.730110000000     0.215160000000     0.399860000000     0.176759   
H281     H      0.804810000000     0.296990000000     0.725490000000     0.0594272  
H282     H      0.840550000000     0.240760000000     0.734520000000     0.046547   
H283     H      0.879520000000     0.387860000000     0.706640000000     0.0593041  
H284     H      0.796110000000     0.275390000000     0.784040000000     0.0572782  
H285     H      0.877220000000     0.276230000000     0.783560000000     0.0467444  
H286     H      0.953850000000     0.372720000000     0.768460000000     0.046272   
H287     H      0.964200000000     0.393680000000     0.709240000000     0.0471321  
H288     H      0.977210000000     0.516450000000     0.746690000000     0.161616   
H289     H      0.657090000000     0.811830000000     0.002090000000     0.0574939  
H290     H      0.073230000000     0.737290000000     0.011900000000     0.0469456  
H291     H      0.638860000000     0.900090000000     0.983120000000     0.0762396  
H292     H      0.642920000000     0.772780000000     0.451970000000     0.0613493  
H293     H      0.052740000000     0.745420000000     0.456190000000     0.0464154  
H294     H      0.034660000000     0.818690000000     0.443570000000     0.0483484  
H295     H      0.047490000000     0.863460000000     0.989310000000     0.042679   
H296     H      0.624600000000     0.972150000000     0.394470000000     0.182811   
H297     H      0.686090000000     0.899150000000     0.198240000000     0.0442869  
H298     H      0.100710000000     0.887500000000     0.196380000000     0.0460975  
H299     H      0.676830000000     0.810100000000     0.196720000000     0.065337   
H300     H      0.676680000000     0.923450000000     0.251220000000     0.0478651  
H301     H      0.086310000000     0.859730000000     0.252660000000     0.0546018  
H302     H      0.081860000000     0.766080000000     0.259360000000     0.0704728  
H303     H      0.088220000000     0.740010000000     0.205390000000     0.0509939  
H304     H      0.658080000000     0.721890000000     0.313310000000     0.175976   
H305     H      0.819600000000     0.061950000000     0.201070000000     0.042397   
H306     H      0.783970000000     0.048350000000     0.277100000000     0.0398811  
H307     H      0.912070000000     0.563350000000     0.208720000000     0.0698678  
H308     H      0.820780000000     0.619340000000     0.218580000000     0.0402121  
H309     H      0.836350000000     0.107760000000     0.297300000000     0.0414173  
H310     H      0.927720000000     0.614680000000     0.303530000000     0.0504148  
H311     H      0.931170000000     0.058320000000     0.289640000000     0.0432985  
H312     H      0.045060000000     0.641880000000     0.191470000000     0.180993   
H313     H      0.911730000000     0.528910000000     0.477270000000     0.0406128  
H314     H      0.925410000000     0.617270000000     0.471810000000     0.0454721  
H315     H      0.809400000000     0.574240000000     0.457480000000     0.069582   
H316     H      0.877030000000     0.018590000000     0.530230000000     0.0487148  
H317     H      0.951240000000     0.607490000000     0.023960000000     0.0395574  
H318     H      0.814790000000     0.052280000000     0.060350000000     0.0460777  
H319     H      0.806920000000     0.602010000000     0.034960000000     0.0458639  
H320     H      0.678640000000     0.998310000000     0.992470000000     0.19381    
H321     H      0.868640000000     0.884080000000     0.527030000000     0.0460231  
H322     H      0.944820000000     0.874760000000     0.523820000000     0.0433643  
H323     H      0.784450000000     0.794470000000     0.023530000000     0.066718   
H324     H      0.903190000000     0.911010000000     0.474780000000     0.0446482  
H325     H      0.925560000000     0.843510000000     0.469080000000     0.0456926  
H326     H      0.840620000000     0.750630000000     0.967510000000     0.0519527  
H327     H      0.807000000000     0.727390000000     0.021150000000     0.0441872  
H328     H      0.730110000000     0.715160000000     0.899860000000     0.176769   
H329     H      0.804810000000     0.796990000000     0.225490000000     0.0594289  
H330     H      0.840550000000     0.740760000000     0.234510000000     0.0465588  
H331     H      0.879520000000     0.887860000000     0.206640000000     0.0593033  
H332     H      0.796110000000     0.775390000000     0.284040000000     0.0572842  
H333     H      0.877220000000     0.776230000000     0.283560000000     0.0467548  
H334     H      0.953850000000     0.872720000000     0.268460000000     0.0463109  
H335     H      0.964200000000     0.893680000000     0.209240000000     0.0471667  
H336     H      0.977210000000     0.016450000000     0.246690000000     0.161513   
H337     H      0.657090000000     0.811830000000     0.502090000000     0.0574467  
H338     H      0.073230000000     0.737290000000     0.511900000000     0.0468914  
H339     H      0.638860000000     0.900090000000     0.483130000000     0.0762396  
H340     H      0.642920000000     0.772780000000     0.951970000000     0.0613504  
H341     H      0.052740000000     0.745420000000     0.956190000000     0.0464266  
H342     H      0.034660000000     0.818690000000     0.943570000000     0.0483484  
H343     H      0.047490000000     0.863460000000     0.489310000000     0.0426926  
H344     H      0.624600000000     0.972150000000     0.894470000000     0.18281    
H345     H      0.686090000000     0.899150000000     0.698250000000     0.0442937  
H346     H      0.100710000000     0.887500000000     0.696380000000     0.0460936  
H347     H      0.676830000000     0.810100000000     0.696720000000     0.0653293  
H348     H      0.676680000000     0.923450000000     0.751220000000     0.0478688  
H349     H      0.086310000000     0.859730000000     0.752660000000     0.0546002  
H350     H      0.081860000000     0.766080000000     0.759360000000     0.070476   
H351     H      0.088220000000     0.740010000000     0.705390000000     0.0509946  
H352     H      0.658080000000     0.721890000000     0.813300000000     0.176064   
H353     H      0.819600000000     0.061950000000     0.701070000000     0.042397   
H354     H      0.783970000000     0.048350000000     0.777100000000     0.0398777  
H355     H      0.912070000000     0.563350000000     0.708720000000     0.0698665  
H356     H      0.820780000000     0.619340000000     0.718590000000     0.0402133  
H357     H      0.836350000000     0.107760000000     0.797300000000     0.0414142  
H358     H      0.927720000000     0.614680000000     0.803530000000     0.0504119  
H359     H      0.931170000000     0.058320000000     0.789640000000     0.0432949  
H360     H      0.045060000000     0.641880000000     0.691470000000     0.18099    
H361     H      0.911730000000     0.528910000000     0.977260000000     0.0406294  
H362     H      0.925410000000     0.617270000000     0.971810000000     0.0454068  
H363     H      0.809400000000     0.574240000000     0.957470000000     0.0695689  
H364     H      0.877030000000     0.018590000000     0.030230000000     0.0487772  
H365     H      0.951240000000     0.607490000000     0.523960000000     0.0395747  
H366     H      0.814790000000     0.052280000000     0.560340000000     0.0460865  
H367     H      0.806920000000     0.602010000000     0.534960000000     0.0458622  
H368     H      0.678640000000     0.998310000000     0.492470000000     0.193829   
H369     H      0.868640000000     0.884080000000     0.027030000000     0.046088   
H370     H      0.944820000000     0.874760000000     0.023820000000     0.0433444  
H371     H      0.784450000000     0.794470000000     0.523520000000     0.0666617  
H372     H      0.903190000000     0.911010000000     0.974780000000     0.0446678  
H373     H      0.925560000000     0.843510000000     0.969080000000     0.0456297  
H374     H      0.840620000000     0.750630000000     0.467510000000     0.0520087  
H375     H      0.807000000000     0.727390000000     0.521150000000     0.0441881  
H376     H      0.730110000000     0.715160000000     0.399860000000     0.17677    
H377     H      0.804810000000     0.796990000000     0.725490000000     0.0594268  
H378     H      0.840550000000     0.740760000000     0.734520000000     0.0465551  
H379     H      0.879520000000     0.887860000000     0.706640000000     0.0593     
H380     H      0.796110000000     0.775390000000     0.784040000000     0.0572815  
H381     H      0.877220000000     0.776230000000     0.783560000000     0.0467544  
H382     H      0.953850000000     0.872720000000     0.768460000000     0.0463128  
H383     H      0.964200000000     0.893680000000     0.709240000000     0.0471686  
H384     H      0.977210000000     0.016450000000     0.746690000000     0.161511   
N1       N      0.141850000000     0.343030000000     0.443310000000    -0.170198   
N2       N      0.558170000000     0.299760000000     0.004790000000    -0.188445   
N3       N      0.176840000000     0.351910000000     0.255130000000    -0.173886   
N4       N      0.586910000000     0.310410000000     0.201670000000    -0.186289   
N5       N      0.394350000000     0.122710000000     0.215350000000    -0.17371    
N6       N      0.356260000000     0.550660000000     0.287380000000    -0.190573   
N7       N      0.337650000000     0.524010000000     0.472020000000    -0.17345    
N8       N      0.382470000000     0.111910000000     0.031270000000    -0.189705   
N9       N      0.331420000000     0.339280000000     0.468540000000    -0.172657   
N10      N      0.378760000000     0.298350000000     0.023880000000    -0.189203   
N11      N      0.354180000000     0.354370000000     0.272010000000    -0.171717   
N12      N      0.405790000000     0.315520000000     0.220930000000    -0.187788   
N13      N      0.141850000000     0.343030000000     0.943310000000    -0.170194   
N14      N      0.558170000000     0.299760000000     0.504790000000    -0.188499   
N15      N      0.176840000000     0.351910000000     0.755130000000    -0.173886   
N16      N      0.586910000000     0.310410000000     0.701670000000    -0.186289   
N17      N      0.394350000000     0.122710000000     0.715350000000    -0.173709   
N18      N      0.356260000000     0.550660000000     0.787380000000    -0.190592   
N19      N      0.337650000000     0.524010000000     0.972020000000    -0.173423   
N20      N      0.382470000000     0.111910000000     0.531270000000    -0.189688   
N21      N      0.331420000000     0.339280000000     0.968540000000    -0.172638   
N22      N      0.378760000000     0.298350000000     0.523870000000    -0.189148   
N23      N      0.354180000000     0.354370000000     0.772010000000    -0.171718   
N24      N      0.405790000000     0.315520000000     0.720930000000    -0.187784   
N25      N      0.141850000000     0.843030000000     0.443310000000    -0.170198   
N26      N      0.558170000000     0.799760000000     0.004790000000    -0.188438   
N27      N      0.176840000000     0.851910000000     0.255130000000    -0.173887   
N28      N      0.586910000000     0.810410000000     0.201670000000    -0.186294   
N29      N      0.394350000000     0.622710000000     0.215350000000    -0.173664   
N30      N      0.356260000000     0.050660000000     0.287380000000    -0.190558   
N31      N      0.337650000000     0.024010000000     0.472020000000    -0.173521   
N32      N      0.382470000000     0.611910000000     0.031270000000    -0.189703   
N33      N      0.331420000000     0.839280000000     0.468540000000    -0.172688   
N34      N      0.378760000000     0.798350000000     0.023880000000    -0.189202   
N35      N      0.354180000000     0.854370000000     0.272010000000    -0.171719   
N36      N      0.405790000000     0.815520000000     0.220930000000    -0.187814   
N37      N      0.141850000000     0.843030000000     0.943310000000    -0.170194   
N38      N      0.558170000000     0.799760000000     0.504790000000    -0.188492   
N39      N      0.176840000000     0.851910000000     0.755130000000    -0.173887   
N40      N      0.586910000000     0.810410000000     0.701670000000    -0.186293   
N41      N      0.394350000000     0.622710000000     0.715350000000    -0.173663   
N42      N      0.356260000000     0.050660000000     0.787380000000    -0.190577   
N43      N      0.337650000000     0.024010000000     0.972020000000    -0.173494   
N44      N      0.382470000000     0.611910000000     0.531270000000    -0.189686   
N45      N      0.331420000000     0.839280000000     0.968540000000    -0.172669   
N46      N      0.378760000000     0.798350000000     0.523870000000    -0.189147   
N47      N      0.354180000000     0.854370000000     0.772010000000    -0.17172    
N48      N      0.405790000000     0.815520000000     0.720930000000    -0.18781    
N49      N      0.641850000000     0.343030000000     0.443310000000    -0.170195   
N50      N      0.058170000000     0.299760000000     0.004790000000    -0.188175   
N51      N      0.676840000000     0.351910000000     0.255130000000    -0.173886   
N52      N      0.086910000000     0.310410000000     0.201670000000    -0.186089   
N53      N      0.894360000000     0.122710000000     0.215350000000    -0.173893   
N54      N      0.856260000000     0.550660000000     0.287380000000    -0.190549   
N55      N      0.837650000000     0.524010000000     0.472020000000    -0.173467   
N56      N      0.882470000000     0.111910000000     0.031270000000    -0.189737   
N57      N      0.831420000000     0.339280000000     0.468540000000    -0.172721   
N58      N      0.878770000000     0.298350000000     0.023880000000    -0.189312   
N59      N      0.854180000000     0.354370000000     0.272010000000    -0.171743   
N60      N      0.905800000000     0.315520000000     0.220930000000    -0.187938   
N61      N      0.641850000000     0.343030000000     0.943310000000    -0.170191   
N62      N      0.058170000000     0.299760000000     0.504790000000    -0.188229   
N63      N      0.676840000000     0.351910000000     0.755130000000    -0.173886   
N64      N      0.086910000000     0.310410000000     0.701670000000    -0.186089   
N65      N      0.894360000000     0.122710000000     0.715350000000    -0.173892   
N66      N      0.856260000000     0.550660000000     0.787380000000    -0.190568   
N67      N      0.837650000000     0.524010000000     0.972020000000    -0.17344    
N68      N      0.882470000000     0.111910000000     0.531270000000    -0.18972    
N69      N      0.831420000000     0.339280000000     0.968540000000    -0.172702   
N70      N      0.878770000000     0.298350000000     0.523870000000    -0.189257   
N71      N      0.854180000000     0.354370000000     0.772010000000    -0.171745   
N72      N      0.905800000000     0.315520000000     0.720930000000    -0.187934   
N73      N      0.641850000000     0.843030000000     0.443310000000    -0.170194   
N74      N      0.058170000000     0.799760000000     0.004790000000    -0.188177   
N75      N      0.676840000000     0.851910000000     0.255130000000    -0.173885   
N76      N      0.086910000000     0.810410000000     0.201670000000    -0.186091   
N77      N      0.894350000000     0.622710000000     0.215350000000    -0.173904   
N78      N      0.856260000000     0.050660000000     0.287380000000    -0.190556   
N79      N      0.837650000000     0.024010000000     0.472020000000    -0.173538   
N80      N      0.882470000000     0.611910000000     0.031270000000    -0.189685   
N81      N      0.831410000000     0.839280000000     0.468540000000    -0.172693   
N82      N      0.878770000000     0.798350000000     0.023880000000    -0.189313   
N83      N      0.854180000000     0.854370000000     0.272010000000    -0.171728   
N84      N      0.905800000000     0.815520000000     0.220930000000    -0.187882   
N85      N      0.641850000000     0.843030000000     0.943310000000    -0.17019    
N86      N      0.058170000000     0.799760000000     0.504790000000    -0.188232   
N87      N      0.676840000000     0.851910000000     0.755130000000    -0.173886   
N88      N      0.086910000000     0.810410000000     0.701670000000    -0.186091   
N89      N      0.894350000000     0.622710000000     0.715350000000    -0.173903   
N90      N      0.856260000000     0.050660000000     0.787380000000    -0.190576   
N91      N      0.837650000000     0.024010000000     0.972020000000    -0.173511   
N92      N      0.882470000000     0.611910000000     0.531270000000    -0.189667   
N93      N      0.831410000000     0.839280000000     0.968540000000    -0.172674   
N94      N      0.878770000000     0.798350000000     0.523870000000    -0.189258   
N95      N      0.854180000000     0.854370000000     0.772010000000    -0.171729   
N96      N      0.905800000000     0.815520000000     0.720930000000    -0.187878   
O1       O      0.352000000000     0.391040000000     0.405620000000    -0.491324   
O2       O      0.287370000000     0.477480000000     0.313040000000    -0.512182   
O3       O      0.271320000000     0.340790000000     0.421270000000    -0.49281    
O4       O      0.304340000000     0.341030000000     0.335140000000    -0.48825    
O5       O      0.344490000000     0.465060000000     0.428410000000    -0.500054   
O6       O      0.204520000000     0.399570000000     0.320930000000    -0.48923    
O7       O      0.284550000000     0.410230000000     0.366260000000    -0.871723   
O8       O      0.213520000000     0.410870000000     0.413130000000    -0.493493   
O9       O      0.192500000000     0.334690000000     0.389800000000    -0.496151   
O10      O      0.359360000000     0.420080000000     0.316420000000    -0.43456    
O11      O      0.232320000000     0.347200000000     0.305470000000    -0.502013   
O12      O      0.293360000000     0.492240000000     0.404910000000    -0.489897   
O13      O      0.361930000000     0.500450000000     0.342800000000    -0.497312   
O14      O      0.432930000000     0.316060000000     0.084680000000    -0.502775   
O15      O      0.520020000000     0.243980000000     0.165260000000    -0.499277   
O16      O      0.378310000000     0.236590000000     0.069290000000    -0.504728   
O17      O      0.384740000000     0.262830000000     0.158910000000    -0.499281   
O18      O      0.505680000000     0.309440000000     0.055510000000    -0.505056   
O19      O      0.442510000000     0.161580000000     0.151590000000    -0.490083   
O20      O      0.452540000000     0.246670000000     0.117170000000    -0.869341   
O21      O      0.451850000000     0.182570000000     0.061100000000    -0.50509    
O22      O      0.376740000000     0.157390000000     0.091140000000    -0.502401   
O23      O      0.465450000000     0.318140000000     0.170930000000    -0.501615   
O24      O      0.393130000000     0.188720000000     0.178750000000    -0.504273   
O25      O      0.535410000000     0.259740000000     0.074490000000    -0.500877   
O26      O      0.543540000000     0.321000000000     0.141980000000    -0.496021   
O27      O      0.100140000000     0.382560000000     0.376860000000    -0.240835   
O28      O      0.126070000000     0.452240000000     0.919890000000    -0.345436   
O29      O      0.201050000000     0.253260000000     0.238010000000    -0.253678   
O30      O      0.150440000000     0.245370000000     0.297190000000    -0.335241   
O31      O      0.504160000000     0.171440000000     0.248450000000    -0.241331   
O32      O      0.508230000000     0.120430000000     0.195230000000    -0.342007   
O33      O      0.238500000000     0.465730000000     0.506830000000    -0.234104   
O34      O      0.214360000000     0.521410000000     0.984960000000    -0.341004   
O35      O      0.208730000000     0.235420000000     0.976440000000    -0.250126   
O36      O      0.259030000000     0.238040000000     0.918880000000    -0.341002   
O37      O      0.400110000000     0.454560000000     0.292920000000    -0.127682   
O38      O      0.460760000000     0.479510000000     0.236320000000    -0.312262   
O39      O      0.352000000000     0.391040000000     0.905620000000    -0.491322   
O40      O      0.287370000000     0.477480000000     0.813050000000    -0.512309   
O41      O      0.271320000000     0.340790000000     0.921270000000    -0.492813   
O42      O      0.304340000000     0.341030000000     0.835140000000    -0.48825    
O43      O      0.344490000000     0.465060000000     0.928410000000    -0.50014    
O44      O      0.204520000000     0.399570000000     0.820930000000    -0.489237   
O45      O      0.284550000000     0.410230000000     0.866260000000    -0.871738   
O46      O      0.213520000000     0.410870000000     0.913130000000    -0.493506   
O47      O      0.192500000000     0.334690000000     0.889800000000    -0.496149   
O48      O      0.359360000000     0.420080000000     0.816420000000    -0.434561   
O49      O      0.232320000000     0.347200000000     0.805470000000    -0.502011   
O50      O      0.293360000000     0.492240000000     0.904920000000    -0.490022   
O51      O      0.361930000000     0.500450000000     0.842800000000    -0.497341   
O52      O      0.432930000000     0.316060000000     0.584670000000    -0.502788   
O53      O      0.520020000000     0.243980000000     0.665260000000    -0.499275   
O54      O      0.378310000000     0.236590000000     0.569290000000    -0.504745   
O55      O      0.384740000000     0.262830000000     0.658910000000    -0.499287   
O56      O      0.505680000000     0.309440000000     0.555510000000    -0.505055   
O57      O      0.442510000000     0.161580000000     0.651590000000    -0.490082   
O58      O      0.452540000000     0.246670000000     0.617170000000    -0.869333   
O59      O      0.451850000000     0.182570000000     0.561100000000    -0.505094   
O60      O      0.376740000000     0.157390000000     0.591140000000    -0.502399   
O61      O      0.465450000000     0.318140000000     0.670930000000    -0.501615   
O62      O      0.393130000000     0.188720000000     0.678750000000    -0.504271   
O63      O      0.535410000000     0.259740000000     0.574490000000    -0.50088    
O64      O      0.543540000000     0.321000000000     0.641980000000    -0.496016   
O65      O      0.100140000000     0.382560000000     0.876860000000    -0.240837   
O66      O      0.126070000000     0.452240000000     0.419890000000    -0.345429   
O67      O      0.201050000000     0.253260000000     0.738010000000    -0.253664   
O68      O      0.150440000000     0.245370000000     0.797200000000    -0.335287   
O69      O      0.504160000000     0.171440000000     0.748450000000    -0.241332   
O70      O      0.508230000000     0.120430000000     0.695230000000    -0.342009   
O71      O      0.238500000000     0.465730000000     0.006830000000    -0.234023   
O72      O      0.214360000000     0.521410000000     0.484960000000    -0.341013   
O73      O      0.208730000000     0.235420000000     0.476440000000    -0.250098   
O74      O      0.259030000000     0.238040000000     0.418880000000    -0.340993   
O75      O      0.400110000000     0.454560000000     0.792920000000    -0.127684   
O76      O      0.460760000000     0.479510000000     0.736320000000    -0.312263   
O77      O      0.351990000000     0.891040000000     0.405620000000    -0.491442   
O78      O      0.287370000000     0.977480000000     0.313040000000    -0.512099   
O79      O      0.271320000000     0.840790000000     0.421270000000    -0.492842   
O80      O      0.304340000000     0.841030000000     0.335140000000    -0.488257   
O81      O      0.344490000000     0.965060000000     0.428410000000    -0.500037   
O82      O      0.204520000000     0.899570000000     0.320930000000    -0.489249   
O83      O      0.284540000000     0.910230000000     0.366260000000    -0.871745   
O84      O      0.213520000000     0.910870000000     0.413130000000    -0.493506   
O85      O      0.192500000000     0.834690000000     0.389800000000    -0.496147   
O86      O      0.359360000000     0.920080000000     0.316420000000    -0.434557   
O87      O      0.232320000000     0.847200000000     0.305470000000    -0.502016   
O88      O      0.293360000000     0.992240000000     0.404910000000    -0.489899   
O89      O      0.361930000000     0.000450000000     0.342800000000    -0.497359   
O90      O      0.432930000000     0.816060000000     0.084680000000    -0.502763   
O91      O      0.520020000000     0.743980000000     0.165260000000    -0.499276   
O92      O      0.378310000000     0.736590000000     0.069290000000    -0.504723   
O93      O      0.384740000000     0.762830000000     0.158910000000    -0.499333   
O94      O      0.505680000000     0.809440000000     0.055510000000    -0.505049   
O95      O      0.442510000000     0.661570000000     0.151590000000    -0.489949   
O96      O      0.452540000000     0.746670000000     0.117170000000    -0.869338   
O97      O      0.451850000000     0.682570000000     0.061100000000    -0.505077   
O98      O      0.376740000000     0.657390000000     0.091140000000    -0.5024     
O99      O      0.465440000000     0.818140000000     0.170930000000    -0.501717   
O100     O      0.393130000000     0.688720000000     0.178750000000    -0.504249   
O101     O      0.535410000000     0.759740000000     0.074490000000    -0.500859   
O102     O      0.543540000000     0.821000000000     0.141980000000    -0.496023   
O103     O      0.100140000000     0.882560000000     0.376860000000    -0.240832   
O104     O      0.126070000000     0.952240000000     0.919890000000    -0.345424   
O105     O      0.201050000000     0.753260000000     0.238010000000    -0.253672   
O106     O      0.150440000000     0.745370000000     0.297190000000    -0.335239   
O107     O      0.504160000000     0.671440000000     0.248450000000    -0.241344   
O108     O      0.508230000000     0.620430000000     0.195230000000    -0.342008   
O109     O      0.238500000000     0.965730000000     0.506830000000    -0.23399    
O110     O      0.214360000000     0.021410000000     0.984960000000    -0.341097   
O111     O      0.208730000000     0.735420000000     0.976440000000    -0.250195   
O112     O      0.259030000000     0.738040000000     0.918880000000    -0.341034   
O113     O      0.400110000000     0.954560000000     0.292920000000    -0.127629   
O114     O      0.460760000000     0.979510000000     0.236320000000    -0.312141   
O115     O      0.351990000000     0.891040000000     0.905620000000    -0.49144    
O116     O      0.287370000000     0.977480000000     0.813050000000    -0.512225   
O117     O      0.271320000000     0.840790000000     0.921270000000    -0.492844   
O118     O      0.304340000000     0.841030000000     0.835140000000    -0.488258   
O119     O      0.344490000000     0.965060000000     0.928410000000    -0.500124   
O120     O      0.204520000000     0.899570000000     0.820930000000    -0.489256   
O121     O      0.284540000000     0.910230000000     0.866260000000    -0.871759   
O122     O      0.213520000000     0.910870000000     0.913130000000    -0.493519   
O123     O      0.192500000000     0.834690000000     0.889800000000    -0.496145   
O124     O      0.359360000000     0.920080000000     0.816420000000    -0.434559   
O125     O      0.232320000000     0.847200000000     0.805470000000    -0.502014   
O126     O      0.293360000000     0.992240000000     0.904920000000    -0.490024   
O127     O      0.361930000000     0.000450000000     0.842800000000    -0.497387   
O128     O      0.432930000000     0.816060000000     0.584670000000    -0.502776   
O129     O      0.520020000000     0.743980000000     0.665260000000    -0.499275   
O130     O      0.378310000000     0.736590000000     0.569290000000    -0.50474    
O131     O      0.384740000000     0.762830000000     0.658910000000    -0.499339   
O132     O      0.505680000000     0.809440000000     0.555510000000    -0.505048   
O133     O      0.442510000000     0.661570000000     0.651590000000    -0.489949   
O134     O      0.452540000000     0.746670000000     0.617170000000    -0.869329   
O135     O      0.451850000000     0.682570000000     0.561100000000    -0.505081   
O136     O      0.376740000000     0.657390000000     0.591140000000    -0.502397   
O137     O      0.465440000000     0.818140000000     0.670930000000    -0.501717   
O138     O      0.393130000000     0.688720000000     0.678750000000    -0.504247   
O139     O      0.535410000000     0.759740000000     0.574490000000    -0.500862   
O140     O      0.543540000000     0.821000000000     0.641980000000    -0.496018   
O141     O      0.100140000000     0.882560000000     0.876860000000    -0.240833   
O142     O      0.126070000000     0.952240000000     0.419890000000    -0.345417   
O143     O      0.201050000000     0.753260000000     0.738010000000    -0.253658   
O144     O      0.150440000000     0.745370000000     0.797200000000    -0.335285   
O145     O      0.504160000000     0.671440000000     0.748450000000    -0.241345   
O146     O      0.508230000000     0.620430000000     0.695230000000    -0.34201    
O147     O      0.238500000000     0.965730000000     0.006830000000    -0.233909   
O148     O      0.214360000000     0.021410000000     0.484960000000    -0.341106   
O149     O      0.208730000000     0.735420000000     0.476440000000    -0.250167   
O150     O      0.259030000000     0.738040000000     0.418880000000    -0.341025   
O151     O      0.400110000000     0.954560000000     0.792920000000    -0.12763    
O152     O      0.460760000000     0.979510000000     0.736320000000    -0.312143   
O153     O      0.851990000000     0.391040000000     0.405620000000    -0.491553   
O154     O      0.787370000000     0.477480000000     0.313040000000    -0.512212   
O155     O      0.771320000000     0.340790000000     0.421270000000    -0.492724   
O156     O      0.804340000000     0.341030000000     0.335140000000    -0.488207   
O157     O      0.844490000000     0.465060000000     0.428410000000    -0.500154   
O158     O      0.704520000000     0.399570000000     0.320930000000    -0.489272   
O159     O      0.784540000000     0.410230000000     0.366260000000    -0.871677   
O160     O      0.713520000000     0.410870000000     0.413130000000    -0.493496   
O161     O      0.692500000000     0.334690000000     0.389800000000    -0.496182   
O162     O      0.859360000000     0.420080000000     0.316420000000    -0.434523   
O163     O      0.732320000000     0.347200000000     0.305470000000    -0.501996   
O164     O      0.793360000000     0.492240000000     0.404910000000    -0.489863   
O165     O      0.861930000000     0.500450000000     0.342800000000    -0.497385   
O166     O      0.932930000000     0.316060000000     0.084680000000    -0.502577   
O167     O      0.020020000000     0.243980000000     0.165260000000    -0.49758    
O168     O      0.878310000000     0.236590000000     0.069290000000    -0.504701   
O169     O      0.884740000000     0.262830000000     0.158910000000    -0.499293   
O170     O      0.005680000000     0.309440000000     0.055510000000    -0.503235   
O171     O      0.942510000000     0.161580000000     0.151590000000    -0.490031   
O172     O      0.952540000000     0.246670000000     0.117170000000    -0.868798   
O173     O      0.951850000000     0.182570000000     0.061100000000    -0.505221   
O174     O      0.876740000000     0.157390000000     0.091140000000    -0.502336   
O175     O      0.965440000000     0.318140000000     0.170930000000    -0.501895   
O176     O      0.893130000000     0.188720000000     0.178750000000    -0.504309   
O177     O      0.035410000000     0.259740000000     0.074490000000    -0.499449   
O178     O      0.043540000000     0.321000000000     0.141980000000    -0.49459    
O179     O      0.600140000000     0.382560000000     0.376860000000    -0.241146   
O180     O      0.626070000000     0.452240000000     0.919890000000    -0.345585   
O181     O      0.701050000000     0.253260000000     0.238010000000    -0.253765   
O182     O      0.650440000000     0.245370000000     0.297190000000    -0.335331   
O183     O      0.004160000000     0.171440000000     0.248450000000    -0.238455   
O184     O      0.008230000000     0.120430000000     0.195230000000    -0.339065   
O185     O      0.738500000000     0.465730000000     0.506830000000    -0.234118   
O186     O      0.714360000000     0.521410000000     0.984960000000    -0.341055   
O187     O      0.708730000000     0.235420000000     0.976440000000    -0.250275   
O188     O      0.759030000000     0.238040000000     0.918880000000    -0.341056   
O189     O      0.900110000000     0.454560000000     0.292920000000    -0.127808   
O190     O      0.960760000000     0.479510000000     0.236320000000    -0.312537   
O191     O      0.851990000000     0.391040000000     0.905620000000    -0.491551   
O192     O      0.787370000000     0.477480000000     0.813050000000    -0.512339   
O193     O      0.771320000000     0.340790000000     0.921270000000    -0.492727   
O194     O      0.804340000000     0.341030000000     0.835140000000    -0.488208   
O195     O      0.844490000000     0.465060000000     0.928410000000    -0.50024    
O196     O      0.704520000000     0.399570000000     0.820930000000    -0.489279   
O197     O      0.784540000000     0.410230000000     0.866260000000    -0.871692   
O198     O      0.713520000000     0.410870000000     0.913130000000    -0.493509   
O199     O      0.692500000000     0.334690000000     0.889800000000    -0.49618    
O200     O      0.859360000000     0.420080000000     0.816420000000    -0.434524   
O201     O      0.732320000000     0.347200000000     0.805470000000    -0.501994   
O202     O      0.793360000000     0.492240000000     0.904920000000    -0.489988   
O203     O      0.861930000000     0.500450000000     0.842800000000    -0.497413   
O204     O      0.932930000000     0.316060000000     0.584670000000    -0.50259    
O205     O      0.020020000000     0.243980000000     0.665260000000    -0.497578   
O206     O      0.878310000000     0.236590000000     0.569290000000    -0.504718   
O207     O      0.884740000000     0.262830000000     0.658910000000    -0.4993     
O208     O      0.005680000000     0.309440000000     0.555510000000    -0.503234   
O209     O      0.942510000000     0.161580000000     0.651590000000    -0.49003    
O210     O      0.952540000000     0.246670000000     0.617170000000    -0.86879    
O211     O      0.951850000000     0.182570000000     0.561100000000    -0.505225   
O212     O      0.876740000000     0.157390000000     0.591140000000    -0.502334   
O213     O      0.965440000000     0.318140000000     0.670930000000    -0.501895   
O214     O      0.893130000000     0.188720000000     0.678750000000    -0.504307   
O215     O      0.035410000000     0.259740000000     0.574490000000    -0.499452   
O216     O      0.043540000000     0.321000000000     0.641980000000    -0.494584   
O217     O      0.600140000000     0.382560000000     0.876860000000    -0.241147   
O218     O      0.626070000000     0.452240000000     0.419890000000    -0.345578   
O219     O      0.701050000000     0.253260000000     0.738010000000    -0.253751   
O220     O      0.650440000000     0.245370000000     0.797200000000    -0.335377   
O221     O      0.004160000000     0.171440000000     0.748450000000    -0.238456   
O222     O      0.008230000000     0.120430000000     0.695230000000    -0.339067   
O223     O      0.738500000000     0.465730000000     0.006830000000    -0.234037   
O224     O      0.714360000000     0.521410000000     0.484960000000    -0.341063   
O225     O      0.708730000000     0.235420000000     0.476440000000    -0.250247   
O226     O      0.759030000000     0.238040000000     0.418880000000    -0.341047   
O227     O      0.900110000000     0.454560000000     0.792920000000    -0.127809   
O228     O      0.960760000000     0.479510000000     0.736320000000    -0.312538   
O229     O      0.851990000000     0.891040000000     0.405620000000    -0.491481   
O230     O      0.787370000000     0.977480000000     0.313040000000    -0.512102   
O231     O      0.771310000000     0.840790000000     0.421270000000    -0.492723   
O232     O      0.804350000000     0.841030000000     0.335140000000    -0.488221   
O233     O      0.844490000000     0.965060000000     0.428410000000    -0.500068   
O234     O      0.704520000000     0.899570000000     0.320930000000    -0.489273   
O235     O      0.784540000000     0.910230000000     0.366260000000    -0.871685   
O236     O      0.713520000000     0.910870000000     0.413130000000    -0.49349    
O237     O      0.692500000000     0.834690000000     0.389800000000    -0.496158   
O238     O      0.859360000000     0.920080000000     0.316420000000    -0.434567   
O239     O      0.732320000000     0.847200000000     0.305470000000    -0.50201    
O240     O      0.793360000000     0.992240000000     0.404910000000    -0.489913   
O241     O      0.861930000000     0.000450000000     0.342800000000    -0.497434   
O242     O      0.932930000000     0.816060000000     0.084680000000    -0.502581   
O243     O      0.020010000000     0.743980000000     0.165260000000    -0.4976     
O244     O      0.878310000000     0.736590000000     0.069290000000    -0.5047     
O245     O      0.884740000000     0.762830000000     0.158910000000    -0.499231   
O246     O      0.005680000000     0.809440000000     0.055510000000    -0.503239   
O247     O      0.942500000000     0.661570000000     0.151590000000    -0.48999    
O248     O      0.952540000000     0.746670000000     0.117170000000    -0.86879    
O249     O      0.951860000000     0.682570000000     0.061100000000    -0.505119   
O250     O      0.876740000000     0.657390000000     0.091140000000    -0.502279   
O251     O      0.965450000000     0.818140000000     0.170930000000    -0.501779   
O252     O      0.893130000000     0.688720000000     0.178750000000    -0.504311   
O253     O      0.035410000000     0.759740000000     0.074490000000    -0.499439   
O254     O      0.043540000000     0.821000000000     0.141980000000    -0.494573   
O255     O      0.600140000000     0.882560000000     0.376860000000    -0.241141   
O256     O      0.626070000000     0.952240000000     0.919890000000    -0.345572   
O257     O      0.701050000000     0.753260000000     0.238010000000    -0.253762   
O258     O      0.650440000000     0.745370000000     0.297190000000    -0.33533    
O259     O      0.004160000000     0.671440000000     0.248450000000    -0.238446   
O260     O      0.008230000000     0.620430000000     0.195230000000    -0.339046   
O261     O      0.738500000000     0.965730000000     0.506830000000    -0.234006   
O262     O      0.714360000000     0.021410000000     0.984960000000    -0.341146   
O263     O      0.708730000000     0.735420000000     0.976440000000    -0.250343   
O264     O      0.759030000000     0.738040000000     0.918880000000    -0.341084   
O265     O      0.900110000000     0.954560000000     0.292920000000    -0.127735   
O266     O      0.960760000000     0.979510000000     0.236320000000    -0.312402   
O267     O      0.851990000000     0.891040000000     0.905620000000    -0.491479   
O268     O      0.787370000000     0.977480000000     0.813050000000    -0.512229   
O269     O      0.771310000000     0.840790000000     0.921270000000    -0.492726   
O270     O      0.804350000000     0.841030000000     0.835140000000    -0.488221   
O271     O      0.844490000000     0.965060000000     0.928410000000    -0.500155   
O272     O      0.704520000000     0.899570000000     0.820930000000    -0.48928    
O273     O      0.784540000000     0.910230000000     0.866260000000    -0.871699   
O274     O      0.713520000000     0.910870000000     0.913130000000    -0.493503   
O275     O      0.692500000000     0.834690000000     0.889800000000    -0.496156   
O276     O      0.859360000000     0.920080000000     0.816420000000    -0.434568   
O277     O      0.732320000000     0.847200000000     0.805470000000    -0.502008   
O278     O      0.793360000000     0.992240000000     0.904920000000    -0.490038   
O279     O      0.861930000000     0.000450000000     0.842800000000    -0.497462   
O280     O      0.932930000000     0.816060000000     0.584670000000    -0.502594   
O281     O      0.020010000000     0.743980000000     0.665260000000    -0.497599   
O282     O      0.878310000000     0.736590000000     0.569290000000    -0.504717   
O283     O      0.884740000000     0.762830000000     0.658910000000    -0.499237   
O284     O      0.005680000000     0.809440000000     0.555510000000    -0.503237   
O285     O      0.942500000000     0.661570000000     0.651590000000    -0.48999    
O286     O      0.952540000000     0.746670000000     0.617170000000    -0.868782   
O287     O      0.951860000000     0.682570000000     0.561100000000    -0.505123   
O288     O      0.876740000000     0.657390000000     0.591140000000    -0.502277   
O289     O      0.965450000000     0.818140000000     0.670930000000    -0.501779   
O290     O      0.893130000000     0.688720000000     0.678750000000    -0.504309   
O291     O      0.035410000000     0.759740000000     0.574490000000    -0.499442   
O292     O      0.043540000000     0.821000000000     0.641980000000    -0.494568   
O293     O      0.600140000000     0.882560000000     0.876860000000    -0.241143   
O294     O      0.626070000000     0.952240000000     0.419890000000    -0.345565   
O295     O      0.701050000000     0.753260000000     0.738010000000    -0.253748   
O296     O      0.650440000000     0.745370000000     0.797200000000    -0.335376   
O297     O      0.004160000000     0.671440000000     0.748450000000    -0.238448   
O298     O      0.008230000000     0.620430000000     0.695230000000    -0.339048   
O299     O      0.738500000000     0.965730000000     0.006830000000    -0.233925   
O300     O      0.714360000000     0.021410000000     0.484960000000    -0.341154   
O301     O      0.708730000000     0.735420000000     0.476440000000    -0.250314   
O302     O      0.759030000000     0.738040000000     0.418880000000    -0.341075   
O303     O      0.900110000000     0.954560000000     0.792920000000    -0.127736   
O304     O      0.960760000000     0.979510000000     0.736320000000    -0.312404   


