data_structure

_audit_creation_method RASPA-1.0
_audit_creation_date 2023-5-23
_audit_author_name 'Poobodin Mano'

_cell_length_a    36.7263
_cell_length_b    36.7245
_cell_length_c    36.7223
_cell_angle_alpha 90.112
_cell_angle_beta  90
_cell_angle_gamma 89.9616
_cell_volume      49529.3

_symmetry_cell_setting          triclinic
_symmetry_space_group_name_Hall 'P 1'
_symmetry_space_group_name_H-M  'P 1'
_symmetry_Int_Tables_number     1

_symmetry_equiv_pos_as_xyz 'x,y,z'

loop_
_atom_site_label
_atom_site_type_symbol
_atom_site_fract_x
_atom_site_fract_y
_atom_site_fract_z
_atom_site_charge
C1       C      0.230800000000     0.582340000000     0.300140000000     0.531642   
C2       C      0.297290000000     0.585140000000     0.228270000000     0.536191   
C3       C      0.231490000000     0.526400000000     0.161960000000     0.534512   
C4       C      0.228430000000     0.472920000000     0.296920000000     0.536106   
C5       C      0.300370000000     0.475720000000     0.230510000000     0.531513   
C6       C      0.162270000000     0.531670000000     0.231130000000     0.534517   
C7       C      0.765670000000     0.582200000000     0.230790000000     0.531728   
C8       C      0.837630000000     0.584820000000     0.297210000000     0.536212   
C9       C      0.903690000000     0.526070000000     0.231100000000     0.534281   
C10      C      0.768590000000     0.472770000000     0.228040000000     0.536377   
C11      C      0.835090000000     0.475420000000     0.299910000000     0.531371   
C12      C      0.834440000000     0.531530000000     0.161990000000     0.534483   
C13      C      0.586290000000     0.831020000000     0.300200000000     0.531528   
C14      C      0.588990000000     0.764490000000     0.228230000000     0.53623    
C15      C      0.530240000000     0.830390000000     0.162160000000     0.534377   
C16      C      0.476870000000     0.833630000000     0.297270000000     0.536107   
C17      C      0.479570000000     0.761640000000     0.230760000000     0.531738   
C18      C      0.535630000000     0.899640000000     0.231390000000     0.534223   
C19      C      0.479670000000     0.226990000000     0.299820000000     0.531517   
C20      C      0.477000000000     0.293410000000     0.228000000000     0.535988   
C21      C      0.535760000000     0.227390000000     0.161800000000     0.53442    
C22      C      0.589070000000     0.224350000000     0.296930000000     0.536164   
C23      C      0.586420000000     0.296220000000     0.230550000000     0.53164    
C24      C      0.530310000000     0.158250000000     0.230910000000     0.534238   
C25      C      0.586380000000     0.227210000000     0.765130000000     0.531595   
C26      C      0.589130000000     0.293750000000     0.837080000000     0.536247   
C27      C      0.530370000000     0.227960000000     0.903190000000     0.53444    
C28      C      0.476960000000     0.224800000000     0.768090000000     0.535985   
C29      C      0.479720000000     0.296780000000     0.834600000000     0.531598   
C30      C      0.535720000000     0.158690000000     0.833960000000     0.534565   
C31      C      0.835100000000     0.296480000000     0.585780000000     0.531515   
C32      C      0.768660000000     0.224610000000     0.588540000000     0.536117   
C33      C      0.834570000000     0.158330000000     0.529790000000     0.534533   
C34      C      0.837560000000     0.293310000000     0.476350000000     0.535992   
C35      C      0.765680000000     0.226880000000     0.479130000000     0.531406   
C36      C      0.903730000000     0.227520000000     0.535120000000     0.53437    
C37      C      0.300300000000     0.227370000000     0.585860000000     0.531826   
C38      C      0.228340000000     0.293830000000     0.588460000000     0.536171   
C39      C      0.162310000000     0.227750000000     0.529720000000     0.534356   
C40      C      0.297450000000     0.224570000000     0.476420000000     0.536158   
C41      C      0.230950000000     0.296490000000     0.479050000000     0.531363   
C42      C      0.231540000000     0.158600000000     0.535190000000     0.534283   
C43      C      0.230910000000     0.476200000000     0.765220000000     0.531662   
C44      C      0.297400000000     0.473440000000     0.837100000000     0.536109   
C45      C      0.231480000000     0.532200000000     0.903370000000     0.534324   
C46      C      0.228400000000     0.585630000000     0.768380000000     0.535929   
C47      C      0.300310000000     0.582850000000     0.834820000000     0.5315     
C48      C      0.162290000000     0.526860000000     0.834180000000     0.534586   
C49      C      0.300240000000     0.831170000000     0.479490000000     0.531567   
C50      C      0.228340000000     0.764740000000     0.476870000000     0.53589    
C51      C      0.162260000000     0.830850000000     0.535630000000     0.534285   
C52      C      0.297390000000     0.833960000000     0.588920000000     0.535956   
C53      C      0.230940000000     0.762090000000     0.586290000000     0.531424   
C54      C      0.231440000000     0.899980000000     0.530150000000     0.534187   
C55      C      0.835110000000     0.761600000000     0.479570000000     0.531638   
C56      C      0.768600000000     0.833500000000     0.476790000000     0.536015   
C57      C      0.834450000000     0.899760000000     0.535540000000     0.534535   
C58      C      0.837560000000     0.764790000000     0.588990000000     0.536215   
C59      C      0.765620000000     0.831240000000     0.586220000000     0.531144   
C60      C      0.903670000000     0.830560000000     0.530230000000     0.534324   
C61      C      0.479600000000     0.831450000000     0.765500000000     0.531596   
C62      C      0.476880000000     0.765030000000     0.837320000000     0.53626    
C63      C      0.535640000000     0.830930000000     0.903540000000     0.534514   
C64      C      0.589000000000     0.833900000000     0.768430000000     0.535833   
C65      C      0.586290000000     0.762030000000     0.834810000000     0.53157    
C66      C      0.530240000000     0.900090000000     0.834440000000     0.534541   
C67      C      0.835000000000     0.582710000000     0.765460000000     0.531363   
C68      C      0.768500000000     0.585320000000     0.837330000000     0.53608    
C69      C      0.834470000000     0.526550000000     0.903350000000     0.534414   
C70      C      0.837690000000     0.473300000000     0.768090000000     0.536251   
C71      C      0.765750000000     0.475890000000     0.834530000000     0.531472   
C72      C      0.903680000000     0.532070000000     0.834230000000     0.534255   
C73      C      0.601400000000     0.696130000000     0.833520000000    -0.0150444  
C74      C      0.739880000000     0.636440000000     0.872050000000    -0.0150827  
C75      C      0.703090000000     0.600380000000     0.830510000000    -0.015575   
C76      C      0.682310000000     0.632230000000     0.843680000000     0.0130022  
C77      C      0.703790000000     0.653950000000     0.865890000000     0.0117419  
C78      C      0.692700000000     0.689290000000     0.875480000000    -0.0642873  
C79      C      0.642060000000     0.737630000000     0.865210000000    -0.0155537  
C80      C      0.647460000000     0.643030000000     0.832670000000    -0.0652793  
C81      C      0.658130000000     0.700540000000     0.863540000000     0.0118573  
C82      C      0.635530000000     0.677370000000     0.844070000000     0.0125854  
C83      C      0.830790000000     0.699410000000     0.604020000000    -0.0157013  
C84      C      0.865320000000     0.638540000000     0.741200000000    -0.0156169  
C85      C      0.833840000000     0.597800000000     0.699590000000    -0.0150059  
C86      C      0.844370000000     0.631930000000     0.680900000000     0.0125901  
C87      C      0.863720000000     0.654580000000     0.704120000000     0.0118542  
C88      C      0.875550000000     0.689180000000     0.692960000000    -0.0642299  
C89      C      0.872130000000     0.736330000000     0.640180000000    -0.015055   
C90      C      0.832980000000     0.643830000000     0.646590000000    -0.0653542  
C91      C      0.865970000000     0.700260000000     0.657660000000     0.0116876  
C92      C      0.843890000000     0.678700000000     0.635890000000     0.0130956  
C93      C      0.741170000000     0.861720000000     0.642010000000    -0.0155876  
C94      C      0.604080000000     0.827000000000     0.703020000000    -0.0156395  
C95      C      0.640070000000     0.868540000000     0.739890000000    -0.0150828  
C96      C      0.657560000000     0.862380000000     0.703780000000     0.0117176  
C97      C      0.635880000000     0.840170000000     0.682260000000     0.0130351  
C98      C      0.646680000000     0.829150000000     0.647380000000    -0.0653237  
C99      C      0.699730000000     0.830000000000     0.601300000000    -0.0150757  
C100     C      0.692850000000     0.871980000000     0.692680000000    -0.0642336  
C101     C      0.680980000000     0.840550000000     0.635470000000     0.0126144  
C102     C      0.704100000000     0.860050000000     0.658080000000     0.0118402  
C103     C      0.103760000000     0.829300000000     0.501500000000    -0.0155031  
C104     C      0.962170000000     0.829230000000     0.564380000000    -0.0154633  
C105     C      0.963260000000     0.822940000000     0.498470000000    -0.0152863  
C106     C      0.000820000000     0.823700000000     0.513400000000     0.0124931  
C107     C      0.000100000000     0.825500000000     0.551110000000     0.0125984  
C108     C      0.032210000000     0.824860000000     0.571750000000    -0.0649743  
C109     C      0.102700000000     0.823330000000     0.567420000000    -0.01523    
C110     C      0.033740000000     0.824670000000     0.494150000000    -0.0649477  
C111     C      0.065140000000     0.823920000000     0.552490000000     0.0124772  
C112     C      0.065850000000     0.825540000000     0.514790000000     0.0126089  
C113     C      0.325960000000     0.868660000000     0.640050000000    -0.0151439  
C114     C      0.464520000000     0.830240000000     0.699610000000    -0.0150099  
C115     C      0.423820000000     0.861900000000     0.741150000000    -0.0155968  
C116     C      0.407770000000     0.860260000000     0.704050000000     0.0118899  
C117     C      0.430390000000     0.840800000000     0.680860000000     0.0125528  
C118     C      0.418440000000     0.829350000000     0.646550000000    -0.0652821  
C119     C      0.362800000000     0.827140000000     0.603950000000    -0.015586   
C120     C      0.373170000000     0.872140000000     0.692850000000    -0.0642835  
C121     C      0.383560000000     0.840300000000     0.635810000000     0.0130147  
C122     C      0.362050000000     0.862500000000     0.657540000000     0.0117503  
C123     C      0.963210000000     0.563900000000     0.826770000000    -0.0152201  
C124     C      0.102760000000     0.495070000000     0.826550000000    -0.0152113  
C125     C      0.103740000000     0.560980000000     0.832850000000    -0.015511   
C126     C      0.065840000000     0.547680000000     0.829090000000     0.0126268  
C127     C      0.065170000000     0.509970000000     0.827280000000     0.01247    
C128     C      0.032280000000     0.490690000000     0.828200000000    -0.0649743  
C129     C      0.962240000000     0.497990000000     0.832730000000    -0.0154369  
C130     C      0.033700000000     0.568290000000     0.828410000000    -0.0649779  
C131     C      0.000140000000     0.511300000000     0.829030000000     0.0125977  
C132     C      0.000800000000     0.549010000000     0.827420000000     0.012469   
C133     C      0.425780000000     0.736510000000     0.871960000000    -0.0151236  
C134     C      0.366190000000     0.597920000000     0.833550000000    -0.0150044  
C135     C      0.324730000000     0.638640000000     0.865280000000    -0.0156135  
C136     C      0.361800000000     0.654700000000     0.863600000000     0.0118789  
C137     C      0.384940000000     0.632070000000     0.844090000000     0.0125598  
C138     C      0.419200000000     0.644010000000     0.832590000000    -0.065307   
C139     C      0.461770000000     0.699640000000     0.830380000000    -0.0155963  
C140     C      0.373020000000     0.689320000000     0.875470000000    -0.0643064  
C141     C      0.429950000000     0.678900000000     0.843540000000     0.0130226  
C142     C      0.408280000000     0.700430000000     0.865780000000     0.0117596  
C143     C      0.193810000000     0.636810000000     0.739910000000    -0.0151004  
C144     C      0.232140000000     0.696220000000     0.601370000000    -0.0150967  
C145     C      0.200610000000     0.737820000000     0.642120000000    -0.015527   
C146     C      0.202220000000     0.700750000000     0.658160000000     0.0118017  
C147     C      0.221610000000     0.677530000000     0.635510000000     0.0126252  
C148     C      0.233010000000     0.643220000000     0.647410000000    -0.0653454  
C149     C      0.235200000000     0.600660000000     0.702990000000    -0.0156818  
C150     C      0.190380000000     0.689580000000     0.692770000000    -0.0642247  
C151     C      0.222100000000     0.632520000000     0.682290000000     0.013084   
C152     C      0.199970000000     0.654280000000     0.703840000000     0.0117119  
C153     C      0.232970000000     0.099980000000     0.501130000000    -0.0155542  
C154     C      0.232880000000     0.958590000000     0.564220000000    -0.0155192  
C155     C      0.239020000000     0.959440000000     0.498300000000    -0.0152343  
C156     C      0.238370000000     0.997050000000     0.513180000000     0.0124584  
C157     C      0.236650000000     0.996470000000     0.550880000000     0.0126275  
C158     C      0.237420000000     0.028640000000     0.571480000000    -0.0649647  
C159     C      0.239090000000     0.099120000000     0.567050000000    -0.0152012  
C160     C      0.237420000000     0.029920000000     0.493870000000    -0.0649878  
C161     C      0.238380000000     0.061510000000     0.552170000000     0.0124383  
C162     C      0.236680000000     0.062090000000     0.514470000000     0.0126596  
C163     C      0.235130000000     0.359260000000     0.603540000000    -0.0155714  
C164     C      0.200450000000     0.420460000000     0.740750000000    -0.015661   
C165     C      0.232060000000     0.461090000000     0.699290000000    -0.0149342  
C166     C      0.221490000000     0.426950000000     0.680500000000     0.0125206  
C167     C      0.202050000000     0.404380000000     0.703630000000     0.0119213  
C168     C      0.190180000000     0.369770000000     0.692390000000    -0.0643299  
C169     C      0.193660000000     0.322500000000     0.639560000000    -0.0150968  
C170     C      0.232920000000     0.414960000000     0.646180000000    -0.0652841  
C171     C      0.199810000000     0.358610000000     0.657090000000     0.0117661  
C172     C      0.221980000000     0.380080000000     0.635400000000     0.0130037  
C173     C      0.826830000000     0.959440000000     0.567240000000    -0.015248   
C174     C      0.826920000000     0.098670000000     0.498100000000    -0.0151565  
C175     C      0.833070000000     0.099940000000     0.564010000000    -0.0155374  
C176     C      0.829260000000     0.061990000000     0.550780000000     0.0126447  
C177     C      0.827540000000     0.061150000000     0.513080000000     0.0124467  
C178     C      0.828490000000     0.028160000000     0.493870000000    -0.0649582  
C179     C      0.832960000000     0.958150000000     0.501320000000    -0.0155224  
C180     C      0.828490000000     0.029950000000     0.571470000000    -0.0649781  
C181     C      0.829230000000     0.996120000000     0.514560000000     0.0126128  
C182     C      0.827520000000     0.996960000000     0.552260000000     0.0124702  
C183     C      0.963290000000     0.235210000000     0.566880000000    -0.015332   
C184     C      0.102740000000     0.235220000000     0.497930000000    -0.0151514  
C185     C      0.103810000000     0.229260000000     0.563840000000    -0.0154634  
C186     C      0.065890000000     0.232940000000     0.550560000000     0.0126464  
C187     C      0.065170000000     0.234540000000     0.512850000000     0.0124075  
C188     C      0.032240000000     0.233470000000     0.493600000000    -0.0649014  
C189     C      0.962220000000     0.228890000000     0.500960000000    -0.0154919  
C190     C      0.033780000000     0.233690000000     0.571200000000    -0.0650168  
C191     C      0.000140000000     0.232720000000     0.514240000000     0.0125902  
C192     C      0.000850000000     0.234540000000     0.551940000000     0.012528   
C193     C      0.833900000000     0.362410000000     0.600890000000    -0.015114   
C194     C      0.872410000000     0.422210000000     0.739440000000    -0.0151437  
C195     C      0.830910000000     0.458230000000     0.702650000000    -0.0155748  
C196     C      0.844080000000     0.426380000000     0.681840000000     0.0130055  
C197     C      0.866270000000     0.404690000000     0.703320000000     0.0117795  
C198     C      0.875850000000     0.369350000000     0.692210000000    -0.0643422  
C199     C      0.865550000000     0.320960000000     0.641550000000    -0.0156184  
C200     C      0.833080000000     0.415550000000     0.646980000000    -0.0653267  
C201     C      0.863910000000     0.358070000000     0.657620000000     0.0118891  
C202     C      0.844470000000     0.381210000000     0.635030000000     0.0126014  
C203     C      0.501560000000     0.100220000000     0.832560000000    -0.0155339  
C204     C      0.564400000000     0.958560000000     0.832970000000    -0.0154608  
C205     C      0.498490000000     0.959680000000     0.826810000000    -0.0153085  
C206     C      0.513430000000     0.997230000000     0.827380000000     0.0125106  
C207     C      0.551140000000     0.996480000000     0.829110000000     0.0125749  
C208     C      0.571780000000     0.028570000000     0.828280000000    -0.0649301  
C209     C      0.567470000000     0.099060000000     0.826450000000    -0.0152095  
C210     C      0.494190000000     0.030180000000     0.828250000000    -0.0649938  
C211     C      0.552540000000     0.061510000000     0.827230000000     0.0124419  
C212     C      0.514840000000     0.062270000000     0.828920000000     0.0126577  
C213     C      0.362780000000     0.458300000000     0.830200000000    -0.0156181  
C214     C      0.423940000000     0.321270000000     0.865030000000    -0.0155589  
C215     C      0.464590000000     0.362680000000     0.833370000000    -0.0150845  
C216     C      0.430440000000     0.381450000000     0.843900000000     0.012601   
C217     C      0.407850000000     0.358350000000     0.863370000000     0.0118551  
C218     C      0.373240000000     0.369590000000     0.875220000000    -0.0642733  
C219     C      0.325990000000     0.422360000000     0.871720000000    -0.0151061  
C220     C      0.418460000000     0.415710000000     0.832430000000    -0.0653244  
C221     C      0.362080000000     0.404840000000     0.865550000000     0.0117516  
C222     C      0.383570000000     0.426490000000     0.843360000000     0.0130322  
C223     C      0.324660000000     0.197090000000     0.641680000000    -0.0155266  
C224     C      0.461880000000     0.231560000000     0.702690000000    -0.0155834  
C225     C      0.425800000000     0.190210000000     0.739510000000    -0.0151144  
C226     C      0.408300000000     0.196340000000     0.703420000000     0.0117404  
C227     C      0.430030000000     0.218450000000     0.681920000000     0.013023   
C228     C      0.419250000000     0.229410000000     0.647070000000    -0.0653223  
C229     C      0.366180000000     0.228580000000     0.601010000000    -0.0149737  
C230     C      0.372970000000     0.186820000000     0.692330000000    -0.0642781  
C231     C      0.384910000000     0.218080000000     0.635150000000     0.0125789  
C232     C      0.361740000000     0.198710000000     0.657750000000     0.011848   
C233     C      0.699880000000     0.460760000000     0.833300000000    -0.0149952  
C234     C      0.640300000000     0.322300000000     0.871680000000    -0.0150753  
C235     C      0.604190000000     0.359130000000     0.830310000000    -0.0156007  
C236     C      0.636050000000     0.379890000000     0.843430000000     0.0130383  
C237     C      0.657790000000     0.358380000000     0.865540000000     0.0117209  
C238     C      0.693130000000     0.369450000000     0.875070000000    -0.0642817  
C239     C      0.741430000000     0.420070000000     0.864800000000    -0.0156307  
C240     C      0.646820000000     0.414730000000     0.832460000000    -0.0653661  
C241     C      0.704350000000     0.404020000000     0.863170000000     0.0118708  
C242     C      0.681160000000     0.426630000000     0.843810000000     0.0125943  
C243     C      0.601500000000     0.228420000000     0.699240000000    -0.0150522  
C244     C      0.740090000000     0.190000000000     0.639610000000    -0.0151595  
C245     C      0.703260000000     0.231500000000     0.603640000000    -0.0155596  
C246     C      0.682480000000     0.218330000000     0.635420000000     0.0129858  
C247     C      0.703980000000     0.196140000000     0.657090000000     0.0117894  
C248     C      0.692870000000     0.186540000000     0.692370000000    -0.064314   
C249     C      0.642180000000     0.196780000000     0.740690000000    -0.0156208  
C250     C      0.647600000000     0.229310000000     0.646210000000    -0.0653078  
C251     C      0.658270000000     0.198450000000     0.703620000000     0.0118784  
C252     C      0.635660000000     0.217900000000     0.680490000000     0.0125859  
C253     C      0.567530000000     0.235030000000     0.102250000000    -0.0152032  
C254     C      0.498600000000     0.235510000000     0.962790000000    -0.0152596  
C255     C      0.564510000000     0.229350000000     0.961700000000    -0.0154922  
C256     C      0.551230000000     0.233000000000     0.999640000000     0.0126196  
C257     C      0.513530000000     0.234730000000     0.000350000000     0.0124766  
C258     C      0.494270000000     0.233660000000     0.033280000000    -0.0649541  
C259     C      0.501630000000     0.228930000000     0.103290000000    -0.0154573  
C260     C      0.571860000000     0.233630000000     0.031750000000    -0.0649718  
C261     C      0.514910000000     0.232780000000     0.065390000000     0.012598   
C262     C      0.552600000000     0.234480000000     0.064680000000     0.0124729  
C263     C      0.362850000000     0.231340000000     0.461380000000    -0.015513   
C264     C      0.423880000000     0.196620000000     0.324160000000    -0.0156223  
C265     C      0.464560000000     0.228220000000     0.365710000000    -0.0149     
C266     C      0.430430000000     0.217690000000     0.384450000000     0.012543   
C267     C      0.407830000000     0.198260000000     0.361250000000     0.0118967  
C268     C      0.373230000000     0.186400000000     0.372450000000    -0.0643058  
C269     C      0.326030000000     0.189880000000     0.425260000000    -0.0151525  
C270     C      0.418490000000     0.229130000000     0.418770000000    -0.0653307  
C271     C      0.362110000000     0.196040000000     0.407760000000     0.0117813  
C272     C      0.383610000000     0.218200000000     0.429510000000     0.0129866  
C273     C      0.640160000000     0.189660000000     0.325460000000    -0.0151311  
C274     C      0.699790000000     0.228110000000     0.464070000000    -0.0149964  
C275     C      0.741260000000     0.196390000000     0.423350000000    -0.0156369  
C276     C      0.704170000000     0.198040000000     0.407300000000     0.0118882  
C277     C      0.681020000000     0.217540000000     0.429930000000     0.0125588  
C278     C      0.646740000000     0.229010000000     0.417990000000    -0.0653022  
C279     C      0.604140000000     0.231220000000     0.362340000000    -0.0156052  
C280     C      0.692950000000     0.186160000000     0.372670000000    -0.0643163  
C281     C      0.635980000000     0.218050000000     0.383090000000     0.0130107  
C282     C      0.657660000000     0.195830000000     0.361570000000     0.0117597  
C283     C      0.567420000000     0.959210000000     0.238890000000    -0.015176   
C284     C      0.498530000000     0.098730000000     0.238530000000    -0.0152572  
C285     C      0.564430000000     0.099710000000     0.232380000000    -0.0154426  
C286     C      0.551150000000     0.061820000000     0.236230000000     0.0125747  
C287     C      0.513450000000     0.061150000000     0.237960000000     0.0124911  
C288     C      0.494180000000     0.028230000000     0.237090000000    -0.0649878  
C289     C      0.501510000000     0.958180000000     0.232780000000    -0.015582   
C290     C      0.571780000000     0.029690000000     0.237060000000    -0.0649103  
C291     C      0.514810000000     0.996100000000     0.236420000000     0.0126712  
C292     C      0.552510000000     0.996780000000     0.238120000000     0.0124033  
C293     C      0.564370000000     0.828950000000     0.103650000000    -0.0154415  
C294     C      0.501500000000     0.829450000000     0.962050000000    -0.0154732  
C295     C      0.567400000000     0.823240000000     0.963090000000    -0.0151652  
C296     C      0.552470000000     0.823800000000     0.000660000000     0.0124474  
C297     C      0.514770000000     0.825560000000     0.999950000000     0.0126049  
C298     C      0.494130000000     0.824740000000     0.032060000000    -0.0649479  
C299     C      0.498460000000     0.822890000000     0.102560000000    -0.0152391  
C300     C      0.571730000000     0.824640000000     0.033600000000    -0.064953   
C301     C      0.513390000000     0.823660000000     0.064990000000     0.0124577  
C302     C      0.551090000000     0.825320000000     0.065710000000     0.0126045  
C303     C      0.703220000000     0.826620000000     0.461660000000    -0.0157205  
C304     C      0.642090000000     0.861390000000     0.324620000000    -0.0155816  
C305     C      0.601430000000     0.829810000000     0.366080000000    -0.0150036  
C306     C      0.635590000000     0.840320000000     0.384830000000     0.0125699  
C307     C      0.658180000000     0.859740000000     0.361690000000     0.0118466  
C308     C      0.692800000000     0.871570000000     0.372910000000    -0.0642543  
C309     C      0.740030000000     0.868080000000     0.425670000000    -0.015094   
C310     C      0.647560000000     0.828860000000     0.419100000000    -0.0653324  
C311     C      0.703940000000     0.861920000000     0.408170000000     0.0117288  
C312     C      0.682450000000     0.839770000000     0.429850000000     0.0130803  
C313     C      0.461810000000     0.826900000000     0.362670000000    -0.0155703  
C314     C      0.324580000000     0.861480000000     0.423690000000    -0.015578   
C315     C      0.366130000000     0.829980000000     0.464370000000    -0.0149816  
C316     C      0.384870000000     0.840500000000     0.430240000000     0.0125758  
C317     C      0.361680000000     0.859880000000     0.407640000000     0.011856   
C318     C      0.372880000000     0.871720000000     0.373040000000    -0.0642646  
C319     C      0.425700000000     0.868270000000     0.325850000000    -0.0151112  
C320     C      0.419190000000     0.829100000000     0.418300000000    -0.0653278  
C321     C      0.408190000000     0.862120000000     0.361930000000     0.0117459  
C322     C      0.429940000000     0.840020000000     0.383430000000     0.0130154  
C323     C      0.826840000000     0.563380000000     0.102520000000    -0.0151997  
C324     C      0.826920000000     0.494680000000     0.962810000000    -0.0152274  
C325     C      0.832980000000     0.560590000000     0.961980000000    -0.0154295  
C326     C      0.829250000000     0.547250000000     0.999860000000     0.0126018  
C327     C      0.827570000000     0.509540000000     0.000430000000     0.0124651  
C328     C      0.828550000000     0.490230000000     0.033290000000    -0.0649252  
C329     C      0.833030000000     0.497470000000     0.103360000000    -0.0154932  
C330     C      0.828480000000     0.567830000000     0.032040000000    -0.0649731  
C331     C      0.829290000000     0.510810000000     0.065480000000     0.0126002  
C332     C      0.827550000000     0.548520000000     0.064900000000     0.0124664  
C333     C      0.830720000000     0.358680000000     0.461290000000    -0.0155691  
C334     C      0.865440000000     0.419590000000     0.324200000000    -0.0155631  
C335     C      0.833870000000     0.460340000000     0.365770000000    -0.0150165  
C336     C      0.844380000000     0.426190000000     0.384470000000     0.0125678  
C337     C      0.863790000000     0.403540000000     0.361270000000     0.0118554  
C338     C      0.875630000000     0.368920000000     0.372440000000    -0.0642894  
C339     C      0.872150000000     0.321760000000     0.425190000000    -0.01512    
C340     C      0.832940000000     0.414280000000     0.418750000000    -0.0652902  
C341     C      0.865990000000     0.357830000000     0.407720000000     0.0117517  
C342     C      0.843850000000     0.379390000000     0.429460000000     0.0130095  
C343     C      0.601540000000     0.362090000000     0.231840000000    -0.0149754  
C344     C      0.740020000000     0.421620000000     0.193360000000    -0.0151179  
C345     C      0.703190000000     0.457750000000     0.234860000000    -0.0156514  
C346     C      0.682430000000     0.425900000000     0.221700000000     0.0130574  
C347     C      0.703940000000     0.404150000000     0.199510000000     0.0117365  
C348     C      0.692860000000     0.368820000000     0.189930000000    -0.06428    
C349     C      0.642220000000     0.320530000000     0.200190000000    -0.015528   
C350     C      0.647580000000     0.415150000000     0.232700000000    -0.0653574  
C351     C      0.658290000000     0.357610000000     0.201860000000     0.0118439  
C352     C      0.635670000000     0.380810000000     0.221310000000     0.0125813  
C353     C      0.741290000000     0.638000000000     0.200480000000    -0.0156282  
C354     C      0.604050000000     0.699090000000     0.235000000000    -0.0155114  
C355     C      0.640130000000     0.735860000000     0.193600000000    -0.015111   
C356     C      0.657630000000     0.699760000000     0.199740000000     0.0117509  
C357     C      0.635910000000     0.678290000000     0.221870000000     0.0129961  
C358     C      0.646690000000     0.643440000000     0.232850000000    -0.0653358  
C359     C      0.699780000000     0.597360000000     0.232020000000    -0.0150044  
C360     C      0.692960000000     0.688650000000     0.190200000000    -0.0642761  
C361     C      0.681030000000     0.631500000000     0.221510000000     0.0125838  
C362     C      0.704200000000     0.654080000000     0.202100000000     0.0118785  
C363     C      0.833920000000     0.695680000000     0.464450000000    -0.0149618  
C364     C      0.872340000000     0.635880000000     0.325860000000    -0.015124   
C365     C      0.830850000000     0.599910000000     0.362650000000    -0.015563   
C366     C      0.844040000000     0.631730000000     0.383470000000     0.0129965  
C367     C      0.866230000000     0.653390000000     0.361990000000     0.0117587  
C368     C      0.875820000000     0.688710000000     0.373120000000    -0.0642971  
C369     C      0.865560000000     0.737090000000     0.423800000000    -0.015642   
C370     C      0.833060000000     0.642560000000     0.418340000000    -0.0652868  
C371     C      0.863910000000     0.699990000000     0.407710000000     0.0119106  
C372     C      0.844470000000     0.676880000000     0.430300000000     0.0125376  
C373     C      0.102650000000     0.563380000000     0.238790000000    -0.0151862  
C374     C      0.963300000000     0.494320000000     0.238600000000    -0.0153051  
C375     C      0.962140000000     0.560240000000     0.232630000000    -0.0155197  
C376     C      0.000080000000     0.546980000000     0.236360000000     0.0126265  
C377     C      0.000840000000     0.509280000000     0.237980000000     0.0124925  
C378     C      0.033800000000     0.490050000000     0.236960000000    -0.0649851  
C379     C      0.103820000000     0.497470000000     0.232470000000    -0.0155642  
C380     C      0.032150000000     0.567650000000     0.237170000000    -0.0649675  
C381     C      0.065880000000     0.510720000000     0.236260000000     0.0126476  
C382     C      0.065110000000     0.548420000000     0.238070000000     0.0124411  
C383     C      0.239170000000     0.494720000000     0.102270000000    -0.0152698  
C384     C      0.239100000000     0.563890000000     0.963050000000    -0.0151943  
C385     C      0.233020000000     0.497980000000     0.961760000000    -0.0155414  
C386     C      0.236790000000     0.511200000000     0.999730000000     0.012626   
C387     C      0.238470000000     0.548900000000     0.000570000000     0.0124461  
C388     C      0.237480000000     0.568100000000     0.033570000000    -0.0649167  
C389     C      0.232960000000     0.560630000000     0.103570000000    -0.015549   
C390     C      0.237560000000     0.490510000000     0.031760000000    -0.0649366  
C391     C      0.236750000000     0.547410000000     0.065610000000     0.0126192  
C392     C      0.238500000000     0.509710000000     0.064760000000     0.0124743  
C393     C      0.425940000000     0.322000000000     0.193320000000    -0.0151086  
C394     C      0.366260000000     0.460620000000     0.231780000000    -0.0149403  
C395     C      0.324850000000     0.419950000000     0.200000000000    -0.0156105  
C396     C      0.361930000000     0.403870000000     0.201690000000     0.0118951  
C397     C      0.385040000000     0.426470000000     0.221220000000     0.0125211  
C398     C      0.419300000000     0.414490000000     0.232730000000    -0.0652543  
C399     C      0.461890000000     0.358810000000     0.234940000000    -0.0155064  
C400     C      0.373170000000     0.369250000000     0.189800000000    -0.0642888  
C401     C      0.430080000000     0.379590000000     0.221770000000     0.0129674  
C402     C      0.408430000000     0.358100000000     0.199500000000     0.011769   
C403     C      0.200640000000     0.320780000000     0.423190000000    -0.0156085  
C404     C      0.235210000000     0.457890000000     0.362310000000    -0.015534   
C405     C      0.193840000000     0.421780000000     0.325390000000    -0.0150959  
C406     C      0.199960000000     0.404330000000     0.361480000000     0.0117405  
C407     C      0.222080000000     0.426070000000     0.383040000000     0.0129922  
C408     C      0.233030000000     0.415340000000     0.417910000000    -0.0652985  
C409     C      0.232160000000     0.362340000000     0.463940000000    -0.0149256  
C410     C      0.190410000000     0.369020000000     0.372540000000    -0.06428    
C411     C      0.221670000000     0.381030000000     0.429780000000     0.0125519  
C412     C      0.202290000000     0.357840000000     0.407140000000     0.011875   
C413     C      0.464430000000     0.695780000000     0.232020000000    -0.0150084  
C414     C      0.325840000000     0.636220000000     0.193680000000    -0.0150959  
C415     C      0.362670000000     0.600230000000     0.235160000000    -0.0155803  
C416     C      0.383450000000     0.632010000000     0.221980000000     0.0130144  
C417     C      0.361950000000     0.653690000000     0.199810000000     0.0117361  
C418     C      0.373060000000     0.688970000000     0.190200000000    -0.0642848  
C419     C      0.423750000000     0.737240000000     0.200400000000    -0.0155248  
C420     C      0.418320000000     0.642780000000     0.232950000000    -0.065316   
C421     C      0.407650000000     0.700190000000     0.202100000000     0.0118585  
C422     C      0.430260000000     0.677050000000     0.221530000000     0.0125764  
C423     C      0.193630000000     0.736090000000     0.425810000000    -0.0150594  
C424     C      0.232000000000     0.597450000000     0.366060000000    -0.0149883  
C425     C      0.200300000000     0.638090000000     0.324650000000    -0.0155752  
C426     C      0.201960000000     0.654180000000     0.361750000000     0.0118751  
C427     C      0.221450000000     0.631600000000     0.384860000000     0.0125656  
C428     C      0.232940000000     0.643600000000     0.419150000000    -0.0653581  
C429     C      0.235190000000     0.699310000000     0.461770000000    -0.0157067  
C430     C      0.190100000000     0.688800000000     0.373000000000    -0.0642622  
C431     C      0.222000000000     0.678500000000     0.429940000000     0.0130822  
C432     C      0.199780000000     0.699970000000     0.408280000000     0.0117073  
Fe1      Fe     0.225620000000     0.568820000000     0.225170000000     1.35607    
Fe2      Fe     0.225420000000     0.489230000000     0.225260000000     1.35539    
Fe3      Fe     0.273770000000     0.529030000000     0.273510000000     1.37052    
Fe4      Fe     0.840590000000     0.568590000000     0.225480000000     1.3557     
Fe5      Fe     0.840280000000     0.489000000000     0.224980000000     1.35529    
Fe6      Fe     0.792190000000     0.528810000000     0.273530000000     1.37089    
Fe7      Fe     0.572730000000     0.836190000000     0.225270000000     1.35559    
Fe8      Fe     0.493140000000     0.836560000000     0.225570000000     1.35571    
Fe9      Fe     0.532930000000     0.788160000000     0.273650000000     1.37096    
Fe10     Fe     0.493240000000     0.221700000000     0.224880000000     1.35536    
Fe11     Fe     0.572830000000     0.221290000000     0.225220000000     1.35567    
Fe12     Fe     0.533040000000     0.269800000000     0.273380000000     1.37063    
Fe13     Fe     0.572840000000     0.222070000000     0.840070000000     1.35573    
Fe14     Fe     0.493250000000     0.221840000000     0.839780000000     1.35548    
Fe15     Fe     0.533050000000     0.270170000000     0.791680000000     1.37048    
Fe16     Fe     0.840340000000     0.221520000000     0.572250000000     1.35551    
Fe17     Fe     0.840620000000     0.221650000000     0.492650000000     1.35545    
Fe18     Fe     0.792200000000     0.269880000000     0.532460000000     1.37044    
Fe19     Fe     0.225390000000     0.222100000000     0.572250000000     1.35546    
Fe20     Fe     0.225740000000     0.221580000000     0.492650000000     1.35529    
Fe21     Fe     0.273810000000     0.270110000000     0.532450000000     1.37068    
Fe22     Fe     0.225710000000     0.489740000000     0.840180000000     1.35566    
Fe23     Fe     0.225370000000     0.569340000000     0.840050000000     1.35538    
Fe24     Fe     0.273790000000     0.529520000000     0.791830000000     1.37054    
Fe25     Fe     0.225320000000     0.836470000000     0.493100000000     1.35576    
Fe26     Fe     0.225690000000     0.836990000000     0.572690000000     1.35532    
Fe27     Fe     0.273780000000     0.788440000000     0.532890000000     1.37058    
Fe28     Fe     0.840280000000     0.836560000000     0.493090000000     1.35569    
Fe29     Fe     0.840550000000     0.836450000000     0.572690000000     1.35559    
Fe30     Fe     0.792180000000     0.788240000000     0.532890000000     1.37059    
Fe31     Fe     0.493150000000     0.836710000000     0.840450000000     1.3556     
Fe32     Fe     0.572730000000     0.836980000000     0.840140000000     1.35568    
Fe33     Fe     0.532940000000     0.788550000000     0.791960000000     1.37054    
Fe34     Fe     0.840210000000     0.569110000000     0.840370000000     1.35553    
Fe35     Fe     0.840650000000     0.489510000000     0.839830000000     1.35562    
Fe36     Fe     0.792190000000     0.529300000000     0.791800000000     1.37041    
H1       H      0.705030000000     0.600360000000     0.800280000000     0.043803   
H2       H      0.762750000000     0.655040000000     0.865210000000     0.0363832  
H3       H      0.710560000000     0.707540000000     0.890210000000     0.0426412  
H4       H      0.631060000000     0.626180000000     0.814850000000     0.0424053  
H5       H      0.596440000000     0.694340000000     0.803700000000     0.0374326  
H6       H      0.636970000000     0.746040000000     0.893840000000     0.0403181  
H7       H      0.690080000000     0.574550000000     0.839330000000     0.0406193  
H8       H      0.742700000000     0.627620000000     0.900830000000     0.042111   
H9       H      0.660230000000     0.758020000000     0.852210000000     0.043072   
H10      H      0.577690000000     0.684300000000     0.848090000000     0.0425016  
H11      H      0.848500000000     0.574100000000     0.687720000000     0.0424984  
H12      H      0.893930000000     0.633500000000     0.749630000000     0.0403559  
H13      H      0.890200000000     0.707080000000     0.711260000000     0.0426157  
H14      H      0.815260000000     0.627380000000     0.629700000000     0.0424374  
H15      H      0.839720000000     0.686360000000     0.578200000000     0.0406849  
H16      H      0.865180000000     0.759220000000     0.658790000000     0.0363675  
H17      H      0.804040000000     0.592780000000     0.697770000000     0.0374276  
H18      H      0.852210000000     0.656700000000     0.761610000000     0.0430734  
H19      H      0.900940000000     0.739160000000     0.631420000000     0.0420999  
H20      H      0.800570000000     0.701320000000     0.603970000000     0.0438454  
H21      H      0.631190000000     0.897330000000     0.742770000000     0.0420998  
H22      H      0.578220000000     0.835820000000     0.690030000000     0.0406602  
H23      H      0.629860000000     0.811330000000     0.630960000000     0.0424237  
H24      H      0.711080000000     0.886720000000     0.710570000000     0.0426115  
H25      H      0.749490000000     0.890340000000     0.636950000000     0.0403465  
H26      H      0.698010000000     0.800180000000     0.596280000000     0.0374353  
H27      H      0.658700000000     0.861700000000     0.762740000000     0.0363849  
H28      H      0.604150000000     0.796780000000     0.704910000000     0.0438137  
H29      H      0.687830000000     0.844580000000     0.577630000000     0.0424948  
H30      H      0.761620000000     0.848730000000     0.660160000000     0.0430868  
H31      H      0.957540000000     0.796520000000     0.484820000000     0.0439772  
H32      H      0.954860000000     0.806760000000     0.583240000000     0.042145   
H33      H      0.031600000000     0.825550000000     0.601210000000     0.0429268  
H34      H      0.034350000000     0.825220000000     0.464680000000     0.0428976  
H35      H      0.111150000000     0.806760000000     0.482650000000     0.0421615  
H36      H      0.107170000000     0.845820000000     0.587210000000     0.0371539  
H37      H      0.958700000000     0.845320000000     0.478650000000     0.0371679  
H38      H      0.958160000000     0.855620000000     0.578710000000     0.0425738  
H39      H      0.108520000000     0.796990000000     0.581100000000     0.0439843  
H40      H      0.107660000000     0.855640000000     0.487160000000     0.0425633  
H41      H      0.405650000000     0.848890000000     0.761530000000     0.0430911  
H42      H      0.469500000000     0.800420000000     0.697790000000     0.0374215  
H43      H      0.434860000000     0.811540000000     0.629690000000     0.0424086  
H44      H      0.355290000000     0.886860000000     0.711120000000     0.0426312  
H45      H      0.303100000000     0.861810000000     0.658650000000     0.0364031  
H46      H      0.375820000000     0.835990000000     0.578120000000     0.0406264  
H47      H      0.428910000000     0.890520000000     0.749580000000     0.0403355  
H48      H      0.488220000000     0.844820000000     0.687780000000     0.0424825  
H49      H      0.360890000000     0.796920000000     0.603920000000     0.0438145  
H50      H      0.323130000000     0.897450000000     0.631240000000     0.0421181  
H51      H      0.107690000000     0.575300000000     0.859250000000     0.0425663  
H52      H      0.107300000000     0.475260000000     0.848940000000     0.0371531  
H53      H      0.031720000000     0.461230000000     0.828740000000     0.0429198  
H54      H      0.034260000000     0.597750000000     0.829100000000     0.0429249  
H55      H      0.958660000000     0.583690000000     0.849260000000     0.0371421  
H56      H      0.954930000000     0.479140000000     0.810170000000     0.0421405  
H57      H      0.111060000000     0.579850000000     0.810390000000     0.0421498  
H58      H      0.108530000000     0.481420000000     0.800130000000     0.0439587  
H59      H      0.958300000000     0.483630000000     0.859060000000     0.0425474  
H60      H      0.957430000000     0.577590000000     0.800430000000     0.0439698  
H61      H      0.304280000000     0.656790000000     0.852310000000     0.0430872  
H62      H      0.367910000000     0.592910000000     0.803720000000     0.0374242  
H63      H      0.436010000000     0.627570000000     0.814760000000     0.0424235  
H64      H      0.354790000000     0.707200000000     0.890230000000     0.0426477  
H65      H      0.407160000000     0.759380000000     0.865130000000     0.0364016  
H66      H      0.487620000000     0.686610000000     0.839170000000     0.0406478  
H67      H      0.316410000000     0.633580000000     0.893910000000     0.0403394  
H68      H      0.378090000000     0.574240000000     0.848110000000     0.0424804  
H69      H      0.461710000000     0.701550000000     0.800160000000     0.0438071  
H70      H      0.434650000000     0.739370000000     0.900750000000     0.0421153  
H71      H      0.213680000000     0.758230000000     0.660280000000     0.0430543  
H72      H      0.261950000000     0.694410000000     0.596360000000     0.0374569  
H73      H      0.250750000000     0.626330000000     0.630950000000     0.0424284  
H74      H      0.175710000000     0.707880000000     0.710670000000     0.042617   
H75      H      0.200740000000     0.655420000000     0.762800000000     0.0363725  
H76      H      0.226290000000     0.574840000000     0.689940000000     0.040677   
H77      H      0.171990000000     0.746250000000     0.637080000000     0.0403269  
H78      H      0.217510000000     0.684350000000     0.577680000000     0.0425242  
H79      H      0.265420000000     0.600600000000     0.704900000000     0.043845   
H80      H      0.165010000000     0.628040000000     0.742760000000     0.0421084  
H81      H      0.265390000000     0.953590000000     0.484640000000     0.0439788  
H82      H      0.255390000000     0.951280000000     0.583080000000     0.0421555  
H83      H      0.236800000000     0.028140000000     0.600940000000     0.0429296  
H84      H      0.236810000000     0.030420000000     0.464410000000     0.0429349  
H85      H      0.255490000000     0.107230000000     0.482270000000     0.042151   
H86      H      0.216660000000     0.103740000000     0.586850000000     0.0371512  
H87      H      0.216580000000     0.954890000000     0.478500000000     0.0371542  
H88      H      0.206520000000     0.954710000000     0.578560000000     0.0425675  
H89      H      0.265480000000     0.104890000000     0.580700000000     0.0439678  
H90      H      0.206620000000     0.103930000000     0.486780000000     0.0425833  
H91      H      0.217460000000     0.484800000000     0.687480000000     0.0424674  
H92      H      0.171840000000     0.425590000000     0.749150000000     0.0403578  
H93      H      0.175490000000     0.351930000000     0.710630000000     0.0426537  
H94      H      0.250710000000     0.431340000000     0.629360000000     0.0424197  
H95      H      0.226260000000     0.372250000000     0.577710000000     0.0406203  
H96      H      0.200520000000     0.299650000000     0.658160000000     0.0363916  
H97      H      0.261880000000     0.466050000000     0.697510000000     0.0373987  
H98      H      0.213470000000     0.402290000000     0.761130000000     0.0431059  
H99      H      0.164870000000     0.319680000000     0.630710000000     0.0421065  
H100     H      0.265350000000     0.357330000000     0.603550000000     0.0438063  
H101     H      0.859440000000     0.103890000000     0.578330000000     0.0425828  
H102     H      0.849350000000     0.103070000000     0.478280000000     0.0371328  
H103     H      0.829110000000     0.027450000000     0.464410000000     0.0429207  
H104     H      0.829130000000     0.030650000000     0.600930000000     0.0429262  
H105     H      0.849260000000     0.954970000000     0.587060000000     0.0371518  
H106     H      0.810450000000     0.950760000000     0.482490000000     0.0421545  
H107     H      0.810580000000     0.107400000000     0.582860000000     0.0421709  
H108     H      0.800540000000     0.104450000000     0.484430000000     0.0439526  
H109     H      0.859320000000     0.954130000000     0.486980000000     0.0425816  
H110     H      0.800450000000     0.953740000000     0.580900000000     0.0439677  
H111     H      0.107810000000     0.202950000000     0.578210000000     0.0425667  
H112     H      0.107290000000     0.212740000000     0.478130000000     0.0371233  
H113     H      0.031640000000     0.232770000000     0.464130000000     0.0428901  
H114     H      0.034390000000     0.233150000000     0.600660000000     0.0429335  
H115     H      0.958820000000     0.212820000000     0.586700000000     0.0371857  
H116     H      0.954830000000     0.251330000000     0.482090000000     0.0421631  
H117     H      0.111120000000     0.251830000000     0.582680000000     0.0421322  
H118     H      0.108460000000     0.261570000000     0.484250000000     0.0439442  
H119     H      0.958310000000     0.202480000000     0.486650000000     0.0425656  
H120     H      0.957480000000     0.261610000000     0.580520000000     0.0440104  
H121     H      0.800690000000     0.458220000000     0.704560000000     0.0438062  
H122     H      0.865560000000     0.403610000000     0.762280000000     0.0364042  
H123     H      0.890550000000     0.351120000000     0.710060000000     0.0426702  
H124     H      0.815280000000     0.432370000000     0.630590000000     0.0424336  
H125     H      0.804090000000     0.364180000000     0.595920000000     0.0374521  
H126     H      0.894170000000     0.312560000000     0.636440000000     0.0403438  
H127     H      0.839760000000     0.484060000000     0.689670000000     0.0406186  
H128     H      0.901190000000     0.431060000000     0.742280000000     0.0421202  
H129     H      0.852540000000     0.300580000000     0.659710000000     0.0431094  
H130     H      0.848490000000     0.374220000000     0.577190000000     0.042509   
H131     H      0.484820000000     0.953800000000     0.800450000000     0.0440086  
H132     H      0.583270000000     0.951090000000     0.810500000000     0.0421596  
H133     H      0.601240000000     0.027940000000     0.828920000000     0.0429094  
H134     H      0.464730000000     0.030810000000     0.828860000000     0.0429271  
H135     H      0.482730000000     0.107480000000     0.810020000000     0.0421518  
H136     H      0.587280000000     0.103670000000     0.848870000000     0.0371375  
H137     H      0.478690000000     0.955290000000     0.849260000000     0.0371701  
H138     H      0.578710000000     0.954710000000     0.859360000000     0.0425379  
H139     H      0.581130000000     0.104690000000     0.800050000000     0.043946   
H140     H      0.487210000000     0.104310000000     0.858900000000     0.0425961  
H141     H      0.488280000000     0.374580000000     0.847970000000     0.0424903  
H142     H      0.429040000000     0.312960000000     0.893660000000     0.0403335  
H143     H      0.355390000000     0.351370000000     0.889940000000     0.0426285  
H144     H      0.434860000000     0.432500000000     0.814630000000     0.0424282  
H145     H      0.375790000000     0.484160000000     0.839020000000     0.0406585  
H146     H      0.303130000000     0.403740000000     0.864850000000     0.0363948  
H147     H      0.469580000000     0.364370000000     0.803560000000     0.0374368  
H148     H      0.405790000000     0.300810000000     0.852020000000     0.0430842  
H149     H      0.323160000000     0.431260000000     0.900510000000     0.0421217  
H150     H      0.360840000000     0.458200000000     0.799980000000     0.0438009  
H151     H      0.434600000000     0.161400000000     0.742330000000     0.0421165  
H152     H      0.487710000000     0.222640000000     0.689660000000     0.0406475  
H153     H      0.436110000000     0.247130000000     0.630660000000     0.042432   
H154     H      0.354710000000     0.172170000000     0.710190000000     0.0426431  
H155     H      0.316250000000     0.168470000000     0.636610000000     0.0403285  
H156     H      0.367960000000     0.258390000000     0.596020000000     0.0373949  
H157     H      0.407200000000     0.197160000000     0.762380000000     0.036387   
H158     H      0.461910000000     0.261780000000     0.704630000000     0.0438112  
H159     H      0.378050000000     0.213930000000     0.577310000000     0.0424777  
H160     H      0.304250000000     0.210190000000     0.659840000000     0.0430587  
H161     H      0.604160000000     0.357190000000     0.800090000000     0.0438182  
H162     H      0.658900000000     0.299420000000     0.864740000000     0.0363841  
H163     H      0.711400000000     0.351580000000     0.889720000000     0.0426461  
H164     H      0.629950000000     0.431140000000     0.814740000000     0.0424573  
H165     H      0.698090000000     0.465740000000     0.803490000000     0.0374047  
H166     H      0.749840000000     0.425150000000     0.893420000000     0.0403632  
H167     H      0.578370000000     0.372180000000     0.839230000000     0.0406455  
H168     H      0.631520000000     0.319500000000     0.900490000000     0.0421053  
H169     H      0.761830000000     0.401910000000     0.851700000000     0.0430819  
H170     H      0.688010000000     0.484470000000     0.847940000000     0.0424884  
H171     H      0.705170000000     0.261720000000     0.603740000000     0.0437869  
H172     H      0.762930000000     0.196880000000     0.658260000000     0.036405   
H173     H      0.710730000000     0.171830000000     0.710600000000     0.0426529  
H174     H      0.631190000000     0.247100000000     0.629400000000     0.0424257  
H175     H      0.596480000000     0.258230000000     0.697540000000     0.0374155  
H176     H      0.637110000000     0.168150000000     0.748980000000     0.0403546  
H177     H      0.690270000000     0.222670000000     0.577760000000     0.0406501  
H178     H      0.742960000000     0.161210000000     0.630700000000     0.0421366  
H179     H      0.660310000000     0.209790000000     0.761160000000     0.0430976  
H180     H      0.577830000000     0.213810000000     0.687320000000     0.0424882  
H181     H      0.578870000000     0.203000000000     0.957630000000     0.042574   
H182     H      0.478790000000     0.213110000000     0.958170000000     0.0371517  
H183     H      0.464810000000     0.233050000000     0.033880000000     0.0429136  
H184     H      0.601320000000     0.232990000000     0.031150000000     0.0429199  
H185     H      0.587330000000     0.212560000000     0.106660000000     0.0371481  
H186     H      0.482760000000     0.251420000000     0.110750000000     0.0421504  
H187     H      0.583350000000     0.251870000000     0.954450000000     0.0421275  
H188     H      0.484950000000     0.261920000000     0.957130000000     0.0439522  
H189     H      0.487300000000     0.202560000000     0.107120000000     0.0425355  
H190     H      0.581200000000     0.261380000000     0.108150000000     0.0439868  
H191     H      0.488270000000     0.213610000000     0.377550000000     0.0424515  
H192     H      0.428970000000     0.168000000000     0.315710000000     0.0403465  
H193     H      0.355360000000     0.171710000000     0.354170000000     0.0426441  
H194     H      0.434890000000     0.246900000000     0.435640000000     0.0424493  
H195     H      0.375880000000     0.222480000000     0.487200000000     0.040609   
H196     H      0.303150000000     0.196760000000     0.406670000000     0.0363861  
H197     H      0.469540000000     0.258040000000     0.367540000000     0.037387   
H198     H      0.405720000000     0.209670000000     0.303770000000     0.0430932  
H199     H      0.323210000000     0.161090000000     0.434040000000     0.0421154  
H200     H      0.360920000000     0.261570000000     0.461430000000     0.0437863  
H201     H      0.761670000000     0.209370000000     0.405190000000     0.0430952  
H202     H      0.698030000000     0.257930000000     0.469080000000     0.0374244  
H203     H      0.629910000000     0.246830000000     0.434420000000     0.0424228  
H204     H      0.711190000000     0.171420000000     0.354790000000     0.0426549  
H205     H      0.658780000000     0.196490000000     0.302610000000     0.0363992  
H206     H      0.578300000000     0.222400000000     0.375350000000     0.0406415  
H207     H      0.749630000000     0.167770000000     0.428420000000     0.040351   
H208     H      0.687930000000     0.213540000000     0.487760000000     0.0424778  
H209     H      0.604170000000     0.261440000000     0.360450000000     0.0438146  
H210     H      0.631310000000     0.160880000000     0.322600000000     0.0421135  
H211     H      0.578750000000     0.103540000000     0.205990000000     0.0425347  
H212     H      0.478730000000     0.103150000000     0.216080000000     0.037165   
H213     H      0.464720000000     0.027660000000     0.236480000000     0.0429276  
H214     H      0.601240000000     0.030260000000     0.236430000000     0.0429063  
H215     H      0.587230000000     0.954570000000     0.216470000000     0.0371318  
H216     H      0.482670000000     0.950960000000     0.255320000000     0.042153   
H217     H      0.583300000000     0.107150000000     0.254850000000     0.042154   
H218     H      0.484860000000     0.104630000000     0.264890000000     0.043996   
H219     H      0.487160000000     0.954110000000     0.206440000000     0.0426102  
H220     H      0.581080000000     0.953550000000     0.265290000000     0.0439352  
H221     H      0.581070000000     0.796860000000     0.957190000000     0.043962   
H222     H      0.482630000000     0.806990000000     0.954580000000     0.0421604  
H223     H      0.464670000000     0.825400000000     0.031460000000     0.0429133  
H224     H      0.601190000000     0.825230000000     0.034200000000     0.0429123  
H225     H      0.583210000000     0.806390000000     0.110890000000     0.0421108  
H226     H      0.478660000000     0.845320000000     0.107180000000     0.03716    
H227     H      0.587210000000     0.845670000000     0.958700000000     0.0371302  
H228     H      0.487180000000     0.855840000000     0.958220000000     0.0425396  
H229     H      0.484800000000     0.796500000000     0.108200000000     0.0439494  
H230     H      0.578740000000     0.855280000000     0.107720000000     0.0425666  
H231     H      0.577750000000     0.844430000000     0.377990000000     0.0424849  
H232     H      0.637010000000     0.890020000000     0.316300000000     0.0403411  
H233     H      0.710650000000     0.886270000000     0.354670000000     0.0426234  
H234     H      0.631150000000     0.811090000000     0.435910000000     0.0424325  
H235     H      0.690210000000     0.835480000000     0.487520000000     0.0406895  
H236     H      0.762890000000     0.861180000000     0.407050000000     0.0364042  
H237     H      0.596430000000     0.800000000000     0.367790000000     0.0374049  
H238     H      0.660230000000     0.848350000000     0.304160000000     0.0430815  
H239     H      0.742860000000     0.896880000000     0.434540000000     0.0421137  
H240     H      0.705170000000     0.796400000000     0.461590000000     0.0438282  
H241     H      0.377960000000     0.844620000000     0.488090000000     0.042486   
H242     H      0.316130000000     0.890100000000     0.428780000000     0.0403405  
H243     H      0.354600000000     0.886370000000     0.355170000000     0.0426274  
H244     H      0.436060000000     0.811370000000     0.434710000000     0.0424375  
H245     H      0.487620000000     0.835820000000     0.375710000000     0.0406439  
H246     H      0.407110000000     0.861340000000     0.302960000000     0.0363789  
H247     H      0.367950000000     0.800170000000     0.469330000000     0.0374163  
H248     H      0.304200000000     0.848390000000     0.405520000000     0.043074   
H249     H      0.434470000000     0.897070000000     0.323050000000     0.0421109  
H250     H      0.461870000000     0.796680000000     0.360730000000     0.0438244  
H251     H      0.859330000000     0.574950000000     0.958080000000     0.0425361  
H252     H      0.849380000000     0.474890000000     0.958230000000     0.0371556  
H253     H      0.829200000000     0.460760000000     0.033790000000     0.0428946  
H254     H      0.829070000000     0.597290000000     0.031550000000     0.0429231  
H255     H      0.849260000000     0.583190000000     0.107110000000     0.0371412  
H256     H      0.810540000000     0.478600000000     0.110630000000     0.0421311  
H257     H      0.810460000000     0.579450000000     0.954700000000     0.0421248  
H258     H      0.800560000000     0.481010000000     0.956990000000     0.0439684  
H259     H      0.859400000000     0.483130000000     0.107270000000     0.0425687  
H260     H      0.800450000000     0.577030000000     0.108330000000     0.0439539  
H261     H      0.848490000000     0.484020000000     0.377670000000     0.0424845  
H262     H      0.894060000000     0.424620000000     0.315820000000     0.0403362  
H263     H      0.890310000000     0.351020000000     0.354160000000     0.0426465  
H264     H      0.815180000000     0.430740000000     0.435620000000     0.0424099  
H265     H      0.839590000000     0.371730000000     0.487140000000     0.0406504  
H266     H      0.865240000000     0.298880000000     0.406570000000     0.0363822  
H267     H      0.804060000000     0.465370000000     0.367550000000     0.0374255  
H268     H      0.852380000000     0.401440000000     0.303760000000     0.0430666  
H269     H      0.900950000000     0.318900000000     0.433990000000     0.0421164  
H270     H      0.800500000000     0.356780000000     0.461290000000     0.0438064  
H271     H      0.705120000000     0.457780000000     0.265080000000     0.0438399  
H272     H      0.762890000000     0.403010000000     0.200220000000     0.0363963  
H273     H      0.710730000000     0.350540000000     0.175220000000     0.0426431  
H274     H      0.631170000000     0.432020000000     0.250490000000     0.04245    
H275     H      0.596550000000     0.363900000000     0.261660000000     0.0374048  
H276     H      0.637150000000     0.312110000000     0.171560000000     0.0403191  
H277     H      0.690170000000     0.483580000000     0.226010000000     0.0406595  
H278     H      0.742850000000     0.430410000000     0.164570000000     0.0421149  
H279     H      0.660380000000     0.300120000000     0.213220000000     0.043055   
H280     H      0.577840000000     0.373960000000     0.217250000000     0.0424822  
H281     H      0.631320000000     0.738670000000     0.164800000000     0.0421165  
H282     H      0.578230000000     0.686070000000     0.226100000000     0.0406295  
H283     H      0.629840000000     0.627060000000     0.250600000000     0.0424458  
H284     H      0.711220000000     0.706500000000     0.175530000000     0.0426314  
H285     H      0.749700000000     0.632900000000     0.171860000000     0.0403483  
H286     H      0.698000000000     0.592400000000     0.261830000000     0.0374189  
H287     H      0.658730000000     0.758720000000     0.200520000000     0.0363896  
H288     H      0.604030000000     0.701030000000     0.265230000000     0.0437877  
H289     H      0.687930000000     0.573660000000     0.217390000000     0.0424926  
H290     H      0.761680000000     0.656160000000     0.213550000000     0.0430905  
H291     H      0.800630000000     0.599980000000     0.360750000000     0.0438061  
H292     H      0.865470000000     0.654500000000     0.303030000000     0.0364113  
H293     H      0.890520000000     0.706930000000     0.355260000000     0.0426372  
H294     H      0.815260000000     0.625760000000     0.434730000000     0.0424187  
H295     H      0.804110000000     0.693940000000     0.469440000000     0.0374052  
H296     H      0.894180000000     0.745440000000     0.428900000000     0.0403522  
H297     H      0.839690000000     0.574060000000     0.375610000000     0.0406264  
H298     H      0.901120000000     0.626980000000     0.322990000000     0.0421111  
H299     H      0.852550000000     0.757500000000     0.405650000000     0.0431174  
H300     H      0.848530000000     0.683840000000     0.488150000000     0.0424547  
H301     H      0.958180000000     0.574580000000     0.206300000000     0.0425852  
H302     H      0.958820000000     0.474530000000     0.216110000000     0.0371696  
H303     H      0.034450000000     0.460590000000     0.236260000000     0.0429257  
H304     H      0.031510000000     0.597110000000     0.236620000000     0.0429159  
H305     H      0.107130000000     0.583210000000     0.216410000000     0.037141   
H306     H      0.111190000000     0.478610000000     0.254930000000     0.0421677  
H307     H      0.954760000000     0.579070000000     0.255180000000     0.0421668  
H308     H      0.957540000000     0.480640000000     0.264940000000     0.0439897  
H309     H      0.107800000000     0.483160000000     0.206070000000     0.0425888  
H310     H      0.108390000000     0.577030000000     0.265210000000     0.0439554  
H311     H      0.206670000000     0.483640000000     0.957780000000     0.0425897  
H312     H      0.216640000000     0.583710000000     0.958630000000     0.0371338  
H313     H      0.236820000000     0.597570000000     0.034280000000     0.0428868  
H314     H      0.236960000000     0.461040000000     0.031050000000     0.0428913  
H315     H      0.216760000000     0.474890000000     0.106700000000     0.0371604  
H316     H      0.255450000000     0.579470000000     0.111000000000     0.0421617  
H317     H      0.255530000000     0.479150000000     0.954320000000     0.0421706  
H318     H      0.265460000000     0.577560000000     0.957300000000     0.0439631  
H319     H      0.206590000000     0.574950000000     0.107570000000     0.0426018  
H320     H      0.265560000000     0.481070000000     0.108010000000     0.0439819  
H321     H      0.304410000000     0.401800000000     0.212950000000     0.0431048  
H322     H      0.367970000000     0.465620000000     0.261610000000     0.0373997  
H323     H      0.436100000000     0.430900000000     0.250580000000     0.042405   
H324     H      0.354950000000     0.351390000000     0.175020000000     0.0426298  
H325     H      0.407310000000     0.299150000000     0.200120000000     0.0363932  
H326     H      0.487750000000     0.371820000000     0.226160000000     0.0406072  
H327     H      0.316530000000     0.425040000000     0.171370000000     0.0403363  
H328     H      0.378150000000     0.484310000000     0.217240000000     0.0424451  
H329     H      0.461810000000     0.356890000000     0.265160000000     0.0437832  
H330     H      0.434830000000     0.319140000000     0.164540000000     0.0421117  
H331     H      0.165040000000     0.430590000000     0.322510000000     0.042108   
H332     H      0.226310000000     0.483740000000     0.375340000000     0.0406524  
H333     H      0.250760000000     0.432220000000     0.434360000000     0.0424197  
H334     H      0.175750000000     0.350740000000     0.354640000000     0.0426406  
H335     H      0.172020000000     0.312400000000     0.428220000000     0.0403511  
H336     H      0.261970000000     0.364120000000     0.468990000000     0.0373888  
H337     H      0.200790000000     0.403140000000     0.302520000000     0.0363843  
H338     H      0.265440000000     0.457890000000     0.360430000000     0.0437922  
H339     H      0.217510000000     0.374260000000     0.487620000000     0.0424594  
H340     H      0.213720000000     0.300330000000     0.405050000000     0.0430686  
H341     H      0.360740000000     0.600330000000     0.265380000000     0.0438061  
H342     H      0.302990000000     0.654870000000     0.200570000000     0.0363999  
H343     H      0.355190000000     0.707200000000     0.175500000000     0.0426461  
H344     H      0.434730000000     0.625960000000     0.250730000000     0.04243    
H345     H      0.469440000000     0.694090000000     0.261830000000     0.0374165  
H346     H      0.428810000000     0.745530000000     0.171760000000     0.0403225  
H347     H      0.375680000000     0.574350000000     0.226320000000     0.040661   
H348     H      0.322980000000     0.627330000000     0.164890000000     0.0421256  
H349     H      0.405620000000     0.757730000000     0.213430000000     0.0430713  
H350     H      0.488100000000     0.683830000000     0.217400000000     0.0424707  
H351     H      0.213280000000     0.656240000000     0.304230000000     0.0430989  
H352     H      0.261820000000     0.592460000000     0.367800000000     0.0374086  
H353     H      0.250760000000     0.627210000000     0.435940000000     0.0424504  
H354     H      0.175360000000     0.706650000000     0.354780000000     0.0426237  
H355     H      0.200460000000     0.758920000000     0.407180000000     0.0363871  
H356     H      0.226370000000     0.686340000000     0.487620000000     0.0406614  
H357     H      0.171680000000     0.632980000000     0.316290000000     0.0403276  
H358     H      0.217430000000     0.573760000000     0.377910000000     0.0424526  
H359     H      0.265400000000     0.701230000000     0.461710000000     0.043848   
H360     H      0.164860000000     0.738950000000     0.434690000000     0.0421091  
N1       N      0.607660000000     0.733730000000     0.845240000000    -0.189734   
N2       N      0.738840000000     0.604790000000     0.847710000000    -0.190225   
N3       N      0.847920000000     0.735190000000     0.608480000000    -0.190215   
N4       N      0.845440000000     0.604100000000     0.737210000000    -0.189653   
N5       N      0.737300000000     0.841730000000     0.607580000000    -0.189618   
N6       N      0.608470000000     0.844220000000     0.738800000000    -0.190196   
N7       N      0.125450000000     0.827770000000     0.534970000000    -0.190125   
N8       N      0.940480000000     0.827500000000     0.530920000000    -0.190159   
N9       N      0.327040000000     0.844340000000     0.608380000000    -0.190174   
N10      N      0.458230000000     0.841920000000     0.737220000000    -0.189726   
N11      N      0.940500000000     0.531430000000     0.831180000000    -0.190086   
N12      N      0.125480000000     0.527530000000     0.831130000000    -0.190214   
N13      N      0.457390000000     0.735410000000     0.847620000000    -0.190219   
N14      N      0.328620000000     0.604210000000     0.845290000000    -0.189668   
N15      N      0.218050000000     0.605120000000     0.738770000000    -0.19013    
N16      N      0.220500000000     0.733840000000     0.607680000000    -0.18965    
N17      N      0.234620000000     0.121780000000     0.534570000000    -0.190101   
N18      N      0.234510000000     0.936790000000     0.530780000000    -0.190145   
N19      N      0.217960000000     0.323520000000     0.607930000000    -0.190178   
N20      N      0.220420000000     0.454850000000     0.736880000000    -0.189731   
N21      N      0.831340000000     0.936570000000     0.534820000000    -0.190167   
N22      N      0.831460000000     0.121530000000     0.530510000000    -0.19022    
N23      N      0.940530000000     0.230590000000     0.534430000000    -0.190197   
N24      N      0.125500000000     0.230820000000     0.530380000000    -0.190194   
N25      N      0.845580000000     0.324820000000     0.607150000000    -0.1896     
N26      N      0.848080000000     0.453840000000     0.738410000000    -0.190257   
N27      N      0.535030000000     0.121870000000     0.830890000000    -0.190175   
N28      N      0.530930000000     0.936900000000     0.831370000000    -0.190142   
N29      N      0.327040000000     0.453940000000     0.847410000000    -0.190218   
N30      N      0.458350000000     0.325110000000     0.845070000000    -0.189696   
N31      N      0.328580000000     0.216960000000     0.607260000000    -0.189802   
N32      N      0.457470000000     0.214440000000     0.738440000000    -0.190171   
N33      N      0.737480000000     0.454490000000     0.844930000000    -0.189691   
N34      N      0.608620000000     0.323380000000     0.847440000000    -0.190274   
N35      N      0.607750000000     0.216720000000     0.736810000000    -0.189676   
N36      N      0.739020000000     0.214310000000     0.608020000000    -0.190194   
N37      N      0.535090000000     0.230490000000     0.125000000000    -0.190219   
N38      N      0.531050000000     0.231040000000     0.940010000000    -0.190174   
N39      N      0.327100000000     0.214180000000     0.456950000000    -0.190249   
N40      N      0.458290000000     0.216560000000     0.328100000000    -0.189703   
N41      N      0.608540000000     0.214000000000     0.326560000000    -0.190235   
N42      N      0.737370000000     0.216390000000     0.457780000000    -0.189692   
N43      N      0.534970000000     0.936460000000     0.234450000000    -0.19013    
N44      N      0.530980000000     0.121440000000     0.233970000000    -0.190125   
N45      N      0.530910000000     0.827310000000     0.125340000000    -0.190156   
N46      N      0.534960000000     0.827830000000     0.940350000000    -0.190163   
N47      N      0.738970000000     0.843810000000     0.457280000000    -0.190175   
N48      N      0.607670000000     0.841480000000     0.328510000000    -0.189698   
N49      N      0.457390000000     0.844020000000     0.326920000000    -0.190223   
N50      N      0.328520000000     0.841590000000     0.458100000000    -0.18969    
N51      N      0.831370000000     0.530900000000     0.125170000000    -0.190156   
N52      N      0.831390000000     0.527170000000     0.940160000000    -0.190219   
N53      N      0.847890000000     0.322900000000     0.456860000000    -0.190231   
N54      N      0.845530000000     0.454040000000     0.328160000000    -0.189777   
N55      N      0.607800000000     0.324480000000     0.220130000000    -0.189807   
N56      N      0.738950000000     0.453300000000     0.217670000000    -0.190235   
N57      N      0.737370000000     0.603600000000     0.220380000000    -0.189695   
N58      N      0.608470000000     0.734820000000     0.217860000000    -0.190223   
N59      N      0.845600000000     0.733250000000     0.458210000000    -0.18969    
N60      N      0.848000000000     0.604290000000     0.326890000000    -0.190202   
N61      N      0.125460000000     0.530960000000     0.234200000000    -0.190167   
N62      N      0.940500000000     0.526760000000     0.234170000000    -0.190133   
N63      N      0.234610000000     0.527130000000     0.125150000000    -0.190143   
N64      N      0.234590000000     0.531480000000     0.940180000000    -0.190128   
N65      N      0.457520000000     0.323060000000     0.217690000000    -0.190196   
N66      N      0.328700000000     0.454360000000     0.220030000000    -0.189702   
N67      N      0.220520000000     0.324740000000     0.457650000000    -0.189715   
N68      N      0.218090000000     0.453440000000     0.326520000000    -0.190232   
N69      N      0.458180000000     0.733350000000     0.220320000000    -0.189793   
N70      N      0.326910000000     0.604630000000     0.217980000000    -0.19027    
N71      N      0.217980000000     0.735070000000     0.457400000000    -0.190194   
N72      N      0.220300000000     0.603690000000     0.328480000000    -0.189777   
O1       O      0.296810000000     0.570490000000     0.259170000000    -0.514228   
O2       O      0.208150000000     0.475580000000     0.269560000000    -0.505816   
O3       O      0.269950000000     0.582470000000     0.207950000000    -0.505826   
O4       O      0.229370000000     0.594340000000     0.268020000000    -0.503723   
O5       O      0.306200000000     0.506590000000     0.243970000000    -0.509695   
O6       O      0.178770000000     0.504860000000     0.217430000000    -0.50673    
O7       O      0.241530000000     0.529030000000     0.241240000000    -0.865709   
O8       O      0.241030000000     0.498710000000     0.179490000000    -0.507907   
O9       O      0.217810000000     0.553200000000     0.178490000000    -0.506934   
O10      O      0.244220000000     0.551470000000     0.305950000000    -0.509513   
O11      O      0.179840000000     0.559350000000     0.240720000000    -0.508179   
O12      O      0.268240000000     0.463710000000     0.229020000000    -0.503457   
O13      O      0.259350000000     0.487580000000     0.296490000000    -0.514148   
O14      O      0.806680000000     0.570230000000     0.296710000000    -0.514059   
O15      O      0.795930000000     0.475410000000     0.207730000000    -0.505897   
O16      O      0.857900000000     0.582150000000     0.269840000000    -0.506032   
O17      O      0.797810000000     0.594170000000     0.229390000000    -0.5036     
O18      O      0.821710000000     0.506310000000     0.305850000000    -0.509604   
O19      O      0.848080000000     0.504670000000     0.178370000000    -0.506621   
O20      O      0.824420000000     0.528800000000     0.241260000000    -0.865665   
O21      O      0.886090000000     0.498400000000     0.240560000000    -0.507877   
O22      O      0.887210000000     0.552910000000     0.217530000000    -0.506718   
O23      O      0.759790000000     0.551330000000     0.244100000000    -0.509751   
O24      O      0.824940000000     0.559190000000     0.179680000000    -0.508159   
O25      O      0.836520000000     0.463440000000     0.267730000000    -0.503209   
O26      O      0.769090000000     0.487410000000     0.259000000000    -0.514534   
O27      O      0.574350000000     0.765020000000     0.259170000000    -0.514326   
O28      O      0.479530000000     0.853890000000     0.269930000000    -0.505764   
O29      O      0.586330000000     0.791820000000     0.207960000000    -0.505925   
O30      O      0.598270000000     0.832420000000     0.268050000000    -0.503664   
O31      O      0.510450000000     0.755760000000     0.244130000000    -0.509809   
O32      O      0.508790000000     0.883170000000     0.217760000000    -0.506686   
O33      O      0.532930000000     0.820380000000     0.241430000000    -0.865768   
O34      O      0.502570000000     0.820910000000     0.179760000000    -0.508072   
O35      O      0.557080000000     0.844010000000     0.178640000000    -0.506665   
O36      O      0.555410000000     0.817680000000     0.306070000000    -0.509589   
O37      O      0.563300000000     0.882020000000     0.240900000000    -0.507778   
O38      O      0.467590000000     0.793790000000     0.229340000000    -0.503586   
O39      O      0.491510000000     0.802680000000     0.296760000000    -0.514217   
O40      O      0.491620000000     0.292920000000     0.258950000000    -0.514187   
O41      O      0.586400000000     0.204040000000     0.269550000000    -0.505887   
O42      O      0.479670000000     0.266050000000     0.207660000000    -0.505782   
O43      O      0.467690000000     0.225550000000     0.267670000000    -0.503557   
O44      O      0.555540000000     0.302140000000     0.243930000000    -0.50968    
O45      O      0.557160000000     0.174670000000     0.217300000000    -0.506615   
O46      O      0.533040000000     0.237520000000     0.241090000000    -0.865651   
O47      O      0.563430000000     0.236870000000     0.179440000000    -0.508063   
O48      O      0.508910000000     0.213800000000     0.178230000000    -0.506545   
O49      O      0.510550000000     0.240340000000     0.305730000000    -0.509554   
O50      O      0.502640000000     0.175900000000     0.240420000000    -0.507909   
O51      O      0.598390000000     0.264060000000     0.229090000000    -0.503504   
O52      O      0.574460000000     0.255310000000     0.296470000000    -0.514096   
O53      O      0.574490000000     0.293230000000     0.806140000000    -0.514294   
O54      O      0.479630000000     0.204530000000     0.795420000000    -0.505726   
O55      O      0.586470000000     0.266430000000     0.857360000000    -0.505797   
O56      O      0.598370000000     0.225790000000     0.797270000000    -0.503591   
O57      O      0.510590000000     0.302620000000     0.821220000000    -0.509577   
O58      O      0.508890000000     0.175200000000     0.847590000000    -0.506766   
O59      O      0.533050000000     0.237950000000     0.823920000000    -0.865482   
O60      O      0.502700000000     0.237480000000     0.885590000000    -0.50798    
O61      O      0.557200000000     0.214300000000     0.886700000000    -0.506815   
O62      O      0.555500000000     0.240600000000     0.759270000000    -0.509637   
O63      O      0.563390000000     0.176260000000     0.824450000000    -0.508067   
O64      O      0.467720000000     0.264650000000     0.836020000000    -0.503572   
O65      O      0.491610000000     0.255730000000     0.768600000000    -0.514161   
O66      O      0.769140000000     0.255520000000     0.573910000000    -0.514218   
O67      O      0.857870000000     0.265960000000     0.479020000000    -0.505695   
O68      O      0.796010000000     0.204290000000     0.585860000000    -0.505833   
O69      O      0.836530000000     0.264370000000     0.597790000000    -0.50354    
O70      O      0.759810000000     0.240340000000     0.510010000000    -0.509488   
O71      O      0.887270000000     0.213830000000     0.508290000000    -0.506549   
O72      O      0.824460000000     0.237610000000     0.532450000000    -0.865516   
O73      O      0.825050000000     0.175880000000     0.502110000000    -0.508015   
O74      O      0.848210000000     0.174850000000     0.556610000000    -0.506764   
O75      O      0.821710000000     0.302310000000     0.554910000000    -0.509575   
O76      O      0.886120000000     0.237090000000     0.562800000000    -0.507998   
O77      O      0.797820000000     0.225400000000     0.467130000000    -0.503547   
O78      O      0.806630000000     0.292870000000     0.491010000000    -0.514093   
O79      O      0.259300000000     0.293300000000     0.573860000000    -0.514149   
O80      O      0.270110000000     0.204280000000     0.479080000000    -0.50567    
O81      O      0.208070000000     0.266480000000     0.585800000000    -0.505892   
O82      O      0.268150000000     0.225980000000     0.597830000000    -0.503629   
O83      O      0.244300000000     0.302440000000     0.509940000000    -0.509563   
O84      O      0.217920000000     0.174990000000     0.508330000000    -0.506709   
O85      O      0.241570000000     0.237860000000     0.532450000000    -0.865425   
O86      O      0.179930000000     0.237200000000     0.502050000000    -0.507891   
O87      O      0.178770000000     0.214190000000     0.556570000000    -0.506612   
O88      O      0.306190000000     0.240660000000     0.554980000000    -0.509758   
O89      O      0.241030000000     0.176280000000     0.562860000000    -0.50792    
O90      O      0.229530000000     0.264310000000     0.467080000000    -0.503334   
O91      O      0.296930000000     0.255540000000     0.491050000000    -0.514363   
O92      O      0.296890000000     0.488070000000     0.806190000000    -0.514218   
O93      O      0.208110000000     0.582970000000     0.795730000000    -0.50572    
O94      O      0.270060000000     0.476130000000     0.857420000000    -0.505806   
O95      O      0.229510000000     0.464210000000     0.797340000000    -0.503791   
O96      O      0.306190000000     0.551970000000     0.821370000000    -0.50951    
O97      O      0.178740000000     0.553700000000     0.847850000000    -0.506695   
O98      O      0.241550000000     0.529540000000     0.824090000000    -0.865612   
O99      O      0.240970000000     0.559890000000     0.885830000000    -0.507905   
O100     O      0.217850000000     0.505380000000     0.886850000000    -0.506773   
O101     O      0.244280000000     0.507070000000     0.759390000000    -0.509543   
O102     O      0.179910000000     0.499190000000     0.824610000000    -0.508108   
O103     O      0.268170000000     0.594850000000     0.836300000000    -0.503471   
O104     O      0.259340000000     0.570970000000     0.768830000000    -0.514068   
O105     O      0.259300000000     0.765250000000     0.491470000000    -0.513967   
O106     O      0.270040000000     0.854270000000     0.586260000000    -0.505689   
O107     O      0.208040000000     0.792110000000     0.479540000000    -0.505851   
O108     O      0.268090000000     0.832580000000     0.467520000000    -0.503527   
O109     O      0.244300000000     0.756120000000     0.555400000000    -0.509525   
O110     O      0.217830000000     0.883600000000     0.557010000000    -0.506458   
O111     O      0.241530000000     0.820710000000     0.532890000000    -0.86585    
O112     O      0.179890000000     0.821400000000     0.563310000000    -0.507881   
O113     O      0.178700000000     0.844400000000     0.508780000000    -0.506797   
O114     O      0.306150000000     0.817870000000     0.510370000000    -0.50958    
O115     O      0.240930000000     0.882280000000     0.502480000000    -0.507875   
O116     O      0.229510000000     0.794260000000     0.598260000000    -0.503505   
O117     O      0.296890000000     0.802980000000     0.574300000000    -0.514169   
O118     O      0.769110000000     0.802590000000     0.491430000000    -0.514148   
O119     O      0.857840000000     0.792130000000     0.586330000000    -0.50574    
O120     O      0.795940000000     0.853800000000     0.479460000000    -0.505842   
O121     O      0.836520000000     0.793710000000     0.467560000000    -0.50362    
O122     O      0.759760000000     0.817790000000     0.555330000000    -0.509442   
O123     O      0.887190000000     0.844250000000     0.557060000000    -0.506623   
O124     O      0.824410000000     0.820490000000     0.532890000000    -0.865733   
O125     O      0.824940000000     0.882220000000     0.563230000000    -0.508041   
O126     O      0.848100000000     0.883230000000     0.508730000000    -0.506869   
O127     O      0.821720000000     0.755790000000     0.510440000000    -0.509555   
O128     O      0.886080000000     0.820980000000     0.502550000000    -0.507954   
O129     O      0.797760000000     0.832710000000     0.598220000000    -0.503475   
O130     O      0.806630000000     0.765250000000     0.574340000000    -0.51428    
O131     O      0.491510000000     0.765490000000     0.806380000000    -0.514247   
O132     O      0.586320000000     0.854220000000     0.795810000000    -0.505624   
O133     O      0.479550000000     0.792380000000     0.857660000000    -0.50589    
O134     O      0.467600000000     0.832900000000     0.797650000000    -0.503419   
O135     O      0.555420000000     0.756160000000     0.821420000000    -0.509572   
O136     O      0.557080000000     0.883630000000     0.848050000000    -0.506778   
O137     O      0.532940000000     0.820820000000     0.824260000000    -0.865902   
O138     O      0.563310000000     0.821410000000     0.885910000000    -0.508217   
O139     O      0.508800000000     0.844570000000     0.887110000000    -0.506624   
O140     O      0.510470000000     0.818050000000     0.759610000000    -0.509754   
O141     O      0.502570000000     0.882490000000     0.824920000000    -0.50819    
O142     O      0.598280000000     0.794170000000     0.836270000000    -0.50345    
O143     O      0.574380000000     0.802960000000     0.768890000000    -0.513955   
O144     O      0.769030000000     0.570700000000     0.806350000000    -0.514174   
O145     O      0.857970000000     0.475970000000     0.795460000000    -0.505887   
O146     O      0.795840000000     0.582660000000     0.857640000000    -0.505864   
O147     O      0.836400000000     0.594680000000     0.797640000000    -0.503444   
O148     O      0.759830000000     0.506780000000     0.821240000000    -0.509509   
O149     O      0.887260000000     0.505200000000     0.847760000000    -0.506591   
O150     O      0.824430000000     0.529310000000     0.824080000000    -0.865506   
O151     O      0.825020000000     0.498880000000     0.885650000000    -0.507966   
O152     O      0.848050000000     0.553420000000     0.886970000000    -0.506667   
O153     O      0.821680000000     0.551820000000     0.759490000000    -0.509519   
O154     O      0.886040000000     0.559740000000     0.824780000000    -0.507846   
O155     O      0.797910000000     0.463930000000     0.835930000000    -0.503607   
O156     O      0.806730000000     0.487900000000     0.768610000000    -0.514284   


