data_structure

_audit_creation_method RASPA-1.0
_audit_creation_date 2023-6-4
_audit_author_name 'Poobodin Mano'

_cell_length_a    27.2033
_cell_length_b    25.2174
_cell_length_c    22.2467
_cell_angle_alpha 90
_cell_angle_beta  90
_cell_angle_gamma 120.635
_cell_volume      13131.2

_symmetry_cell_setting          triclinic
_symmetry_space_group_name_Hall 'P 1'
_symmetry_space_group_name_H-M  'P 1'
_symmetry_Int_Tables_number     1

_symmetry_equiv_pos_as_xyz 'x,y,z'

loop_
_atom_site_label
_atom_site_type_symbol
_atom_site_fract_x
_atom_site_fract_y
_atom_site_fract_z
_atom_site_charge
C1       C      0.333220000000     0.392930000000     0.381420000000     0.53609    
C2       C      0.328130000000     0.396360000000     0.539180000000     0.525362   
C3       C      0.191310000000     0.419890000000     0.538040000000     0.533896   
C4       C      0.331870000000     0.555010000000     0.366980000000     0.550787   
C5       C      0.357450000000     0.572850000000     0.522310000000     0.525891   
C6       C      0.185360000000     0.394490000000     0.379250000000     0.52028    
C7       C      0.416020000000     0.348580000000     0.120330000000     0.504852   
C8       C      0.424160000000     0.374190000000     0.273450000000     0.504514   
C9       C      0.554010000000     0.356980000000     0.289150000000     0.511441   
C10      C      0.405480000000     0.209110000000     0.118170000000     0.521354   
C11      C      0.420950000000     0.181370000000     0.265640000000     0.520216   
C12      C      0.580330000000     0.325080000000     0.148250000000     0.420156   
C13      C      0.336140000000     0.395150000000     0.880490000000     0.537837   
C14      C      0.331520000000     0.400090000000     0.038300000000     0.526055   
C15      C      0.195220000000     0.423600000000     0.036590000000     0.537044   
C16      C      0.335410000000     0.558290000000     0.865280000000     0.549408   
C17      C      0.361750000000     0.576180000000     0.020840000000     0.528367   
C18      C      0.188780000000     0.397490000000     0.878590000000     0.519311   
C19      C      0.413780000000     0.345220000000     0.619670000000     0.504145   
C20      C      0.424950000000     0.373700000000     0.772090000000     0.505332   
C21      C      0.553310000000     0.355190000000     0.787560000000     0.511186   
C22      C      0.403290000000     0.206450000000     0.618540000000     0.521157   
C23      C      0.420130000000     0.180030000000     0.767380000000     0.518865   
C24      C      0.577770000000     0.320270000000     0.646000000000     0.419861   
C25      C      0.327690000000     0.892280000000     0.376910000000     0.536883   
C26      C      0.325770000000     0.895890000000     0.534850000000     0.526519   
C27      C      0.191470000000     0.923960000000     0.537620000000     0.539697   
C28      C      0.329940000000     0.055360000000     0.363360000000     0.544984   
C29      C      0.356990000000     0.073210000000     0.519400000000     0.521913   
C30      C      0.177550000000     0.894360000000     0.381180000000     0.511963   
C31      C      0.414010000000     0.845380000000     0.120530000000     0.506542   
C32      C      0.421080000000     0.873260000000     0.272730000000     0.503282   
C33      C      0.551400000000     0.856540000000     0.290920000000     0.514013   
C34      C      0.404540000000     0.708220000000     0.119960000000     0.525232   
C35      C      0.420210000000     0.681350000000     0.268580000000     0.52384    
C36      C      0.577540000000     0.821790000000     0.150530000000     0.417811   
C37      C      0.334170000000     0.894640000000     0.879100000000     0.537677   
C38      C      0.328460000000     0.894320000000     0.037460000000     0.532775   
C39      C      0.192640000000     0.914730000000     0.041120000000     0.535525   
C40      C      0.331710000000     0.056200000000     0.869510000000     0.544541   
C41      C      0.357200000000     0.071220000000     0.025100000000     0.52091    
C42      C      0.184630000000     0.894530000000     0.880460000000     0.519759   
C43      C      0.412920000000     0.847420000000     0.617050000000     0.501482   
C44      C      0.424450000000     0.876130000000     0.769710000000     0.501614   
C45      C      0.553440000000     0.858310000000     0.784380000000     0.512677   
C46      C      0.403360000000     0.709100000000     0.616220000000     0.524478   
C47      C      0.421840000000     0.683500000000     0.764340000000     0.522483   
C48      C      0.577260000000     0.822500000000     0.642490000000     0.416201   
C49      C      0.823560000000     0.382530000000     0.377550000000     0.536148   
C50      C      0.826870000000     0.388540000000     0.534820000000     0.542481   
C51      C      0.692220000000     0.412730000000     0.544290000000     0.552636   
C52      C      0.829310000000     0.550940000000     0.369040000000     0.536088   
C53      C      0.853030000000     0.558470000000     0.527660000000     0.528069   
C54      C      0.674610000000     0.386150000000     0.386360000000     0.520687   
C55      C      0.923820000000     0.362600000000     0.118210000000     0.534594   
C56      C      0.918740000000     0.365280000000     0.274790000000     0.531129   
C57      C      0.065290000000     0.361980000000     0.278750000000     0.5223     
C58      C      0.897970000000     0.192510000000     0.125860000000     0.525437   
C59      C      0.916230000000     0.198020000000     0.284790000000     0.538825   
C60      C      0.062390000000     0.339790000000     0.120180000000     0.541839   
C61      C      0.821840000000     0.384410000000     0.879560000000     0.534227   
C62      C      0.830080000000     0.399550000000     0.035420000000     0.541129   
C63      C      0.693180000000     0.418540000000     0.046380000000     0.55153    
C64      C      0.820840000000     0.551420000000     0.864740000000     0.539239   
C65      C      0.854310000000     0.570300000000     0.017960000000     0.521857   
C66      C      0.671470000000     0.385190000000     0.888930000000     0.520115   
C67      C      0.920790000000     0.356490000000     0.623590000000     0.532809   
C68      C      0.917870000000     0.363870000000     0.780480000000     0.526758   
C69      C      0.064200000000     0.359730000000     0.783440000000     0.52095    
C70      C      0.895290000000     0.189420000000     0.632760000000     0.530634   
C71      C      0.914920000000     0.193450000000     0.791480000000     0.531645   
C72      C      0.060170000000     0.336030000000     0.625230000000     0.540017   
C73      C      0.826830000000     0.892910000000     0.368950000000     0.531064   
C74      C      0.830560000000     0.892410000000     0.527200000000     0.542769   
C75      C      0.693630000000     0.913820000000     0.541950000000     0.5522     
C76      C      0.826550000000     0.056880000000     0.369320000000     0.53293    
C77      C      0.851800000000     0.059740000000     0.527610000000     0.52483    
C78      C      0.674330000000     0.888970000000     0.384710000000     0.524806   
C79      C      0.908340000000     0.836580000000     0.117420000000     0.50566    
C80      C      0.921930000000     0.873720000000     0.267410000000     0.499437   
C81      C      0.054740000000     0.858530000000     0.283160000000     0.503378   
C82      C      0.899580000000     0.700520000000     0.121930000000     0.517397   
C83      C      0.920730000000     0.680290000000     0.271170000000     0.506149   
C84      C      0.075560000000     0.818950000000     0.141650000000     0.419032   
C85      C      0.818050000000     0.879780000000     0.879140000000     0.529638   
C86      C      0.818300000000     0.880450000000     0.036160000000     0.533457   
C87      C      0.687900000000     0.912000000000     0.045700000000     0.557361   
C88      C      0.824590000000     0.048550000000     0.872360000000     0.523509   
C89      C      0.847340000000     0.054240000000     0.030430000000     0.519582   
C90      C      0.669440000000     0.884100000000     0.887060000000     0.524376   
C91      C      0.924040000000     0.862240000000     0.618850000000     0.536709   
C92      C      0.914050000000     0.863270000000     0.776310000000     0.528214   
C93      C      0.061610000000     0.860180000000     0.783860000000     0.521041   
C94      C      0.898050000000     0.693170000000     0.626390000000     0.528456   
C95      C      0.911190000000     0.695500000000     0.785150000000     0.538743   
C96      C      0.061480000000     0.839970000000     0.625390000000     0.543476   
Fe1      Fe     0.247770000000     0.379350000000     0.461840000000     1.35367    
Fe2      Fe     0.256220000000     0.497510000000     0.453810000000     1.3472     
Fe3      Fe     0.358670000000     0.489040000000     0.450140000000     1.35578    
Fe4      Fe     0.504020000000     0.376310000000     0.191150000000     1.25078    
Fe5      Fe     0.497050000000     0.273450000000     0.195930000000     1.47796    
Fe6      Fe     0.392350000000     0.266920000000     0.220150000000     1.45142    
Fe7      Fe     0.251460000000     0.382900000000     0.960750000000     1.3586     
Fe8      Fe     0.260200000000     0.501050000000     0.952740000000     1.3478     
Fe9      Fe     0.362480000000     0.492110000000     0.948220000000     1.35413    
Fe10     Fe     0.503050000000     0.373520000000     0.688940000000     1.25009    
Fe11     Fe     0.495400000000     0.270480000000     0.695620000000     1.47698    
Fe12     Fe     0.391450000000     0.265160000000     0.720530000000     1.45134    
Fe13     Fe     0.243970000000     0.880320000000     0.459540000000     1.35564    
Fe14     Fe     0.254800000000     0.999860000000     0.451350000000     1.33425    
Fe15     Fe     0.355740000000     0.988640000000     0.446300000000     1.35252    
Fe16     Fe     0.501830000000     0.874670000000     0.192070000000     1.25249    
Fe17     Fe     0.495370000000     0.772520000000     0.198140000000     1.49106    
Fe18     Fe     0.390380000000     0.765330000000     0.221630000000     1.45569    
Fe19     Fe     0.248320000000     0.878320000000     0.960400000000     1.3607     
Fe20     Fe     0.255530000000     0.996210000000     0.956460000000     1.33525    
Fe21     Fe     0.358850000000     0.988930000000     0.950770000000     1.3471     
Fe22     Fe     0.502820000000     0.876460000000     0.686010000000     1.24234    
Fe23     Fe     0.495610000000     0.773810000000     0.692490000000     1.48958    
Fe24     Fe     0.391560000000     0.767720000000     0.718140000000     1.45122    
Fe25     Fe     0.742130000000     0.370750000000     0.462570000000     1.37107    
Fe26     Fe     0.753080000000     0.491020000000     0.456210000000     1.33894    
Fe27     Fe     0.853450000000     0.479100000000     0.447430000000     1.35677    
Fe28     Fe     0.004700000000     0.379550000000     0.195130000000     1.3627     
Fe29     Fe     0.994880000000     0.260320000000     0.202150000000     1.33832    
Fe30     Fe     0.893580000000     0.270050000000     0.204920000000     1.3599     
Fe31     Fe     0.742290000000     0.375630000000     0.965310000000     1.37292    
Fe32     Fe     0.749320000000     0.493500000000     0.954740000000     1.33057    
Fe33     Fe     0.851550000000     0.484930000000     0.943530000000     1.35678    
Fe34     Fe     0.002640000000     0.375800000000     0.700260000000     1.36107    
Fe35     Fe     0.993000000000     0.256790000000     0.707980000000     1.33388    
Fe36     Fe     0.891580000000     0.266830000000     0.713060000000     1.3546     
Fe37     Fe     0.744600000000     0.874720000000     0.457150000000     1.37542    
Fe38     Fe     0.752470000000     0.993320000000     0.454860000000     1.33893    
Fe39     Fe     0.854610000000     0.985410000000     0.443840000000     1.3496     
Fe40     Fe     0.999940000000     0.871130000000     0.185300000000     1.24423    
Fe41     Fe     0.994330000000     0.769190000000     0.194860000000     1.45403    
Fe42     Fe     0.890190000000     0.762870000000     0.222310000000     1.43995    
Fe43     Fe     0.735560000000     0.867210000000     0.964040000000     1.36969    
Fe44     Fe     0.748220000000     0.988180000000     0.956830000000     1.33727    
Fe45     Fe     0.847540000000     0.975000000000     0.951050000000     1.33781    
Fe46     Fe     0.002610000000     0.878990000000     0.699350000000     1.35694    
Fe47     Fe     0.992300000000     0.759570000000     0.705750000000     1.3447     
Fe48     Fe     0.891040000000     0.769300000000     0.705190000000     1.3596     
H1       H      0.643180000000     0.313460000000     0.109010000000     0.123426   
H2       H      0.153860000000     0.443970000000     0.605160000000     0.120593   
H3       H      0.602130000000     0.422890000000     0.353140000000     0.120626   
H4       H      0.142690000000     0.332050000000     0.310630000000     0.119788   
H5       H      0.315760000000     0.601890000000     0.301460000000     0.115403   
H6       H      0.427520000000     0.108030000000     0.298120000000     0.124733   
H7       H      0.336950000000     0.158040000000     0.062390000000     0.118423   
H8       H      0.428750000000     0.628540000000     0.574360000000     0.124626   
H9       H      0.427990000000     0.399350000000     0.043430000000     0.122938   
H10      H      0.312380000000     0.337870000000     0.611380000000     0.119037   
H11      H      0.416060000000     0.448720000000     0.298310000000     0.121494   
H12      H      0.337340000000     0.319250000000     0.348720000000     0.118756   
H13      H      0.638780000000     0.306480000000     0.605160000000     0.123539   
H14      H      0.156930000000     0.447580000000     0.102830000000     0.12127    
H15      H      0.600160000000     0.421560000000     0.851530000000     0.121177   
H16      H      0.144530000000     0.333200000000     0.811870000000     0.11964    
H17      H      0.318480000000     0.605260000000     0.800660000000     0.115029   
H18      H      0.427760000000     0.108080000000     0.802110000000     0.124828   
H19      H      0.334050000000     0.155700000000     0.563310000000     0.118385   
H20      H      0.432630000000     0.631300000000     0.073660000000     0.1248     
H21      H      0.424550000000     0.395280000000     0.542520000000     0.122716   
H22      H      0.315200000000     0.342120000000     0.111040000000     0.119411   
H23      H      0.418120000000     0.449220000000     0.796230000000     0.121602   
H24      H      0.339300000000     0.320710000000     0.848640000000     0.118906   
H25      H      0.638550000000     0.808030000000     0.109800000000     0.123835   
H26      H      0.155170000000     0.948620000000     0.605690000000     0.120393   
H27      H      0.599140000000     0.922880000000     0.354670000000     0.12095    
H28      H      0.125080000000     0.823010000000     0.323750000000     0.124589   
H29      H      0.315140000000     0.102190000000     0.296550000000     0.11438    
H30      H      0.429160000000     0.610020000000     0.302300000000     0.125203   
H31      H      0.336080000000     0.656550000000     0.064130000000     0.119205   
H32      H      0.428210000000     0.126770000000     0.572430000000     0.124273   
H33      H      0.425720000000     0.895150000000     0.042890000000     0.12315    
H34      H      0.310730000000     0.838440000000     0.607880000000     0.118897   
H35      H      0.411330000000     0.947410000000     0.294490000000     0.121393   
H36      H      0.330840000000     0.818040000000     0.343860000000     0.118109   
H37      H      0.636800000000     0.806810000000     0.600910000000     0.123834   
H38      H      0.155880000000     0.933590000000     0.113150000000     0.116332   
H39      H      0.601280000000     0.924670000000     0.848250000000     0.12065    
H40      H      0.141000000000     0.832390000000     0.812050000000     0.119988   
H41      H      0.315800000000     0.103510000000     0.804230000000     0.114613   
H42      H      0.431680000000     0.612870000000     0.798620000000     0.124964   
H43      H      0.334080000000     0.656440000000     0.561750000000     0.118674   
H44      H      0.428990000000     0.126350000000     0.077010000000     0.123568   
H45      H      0.422920000000     0.896190000000     0.539110000000     0.12256    
H46      H      0.312140000000     0.835270000000     0.109080000000     0.120715   
H47      H      0.416480000000     0.950980000000     0.794500000000     0.120889   
H48      H      0.337070000000     0.821310000000     0.843780000000     0.118043   
H49      H      0.101330000000     0.316140000000     0.054630000000     0.121648   
H50      H      0.659520000000     0.434880000000     0.617810000000     0.118873   
H51      H      0.107530000000     0.423800000000     0.347900000000     0.120725   
H52      H      0.620510000000     0.316020000000     0.328690000000     0.127313   
H53      H      0.815600000000     0.603360000000     0.307450000000     0.113291   
H54      H      0.930680000000     0.150560000000     0.351120000000     0.121566   
H55      H      0.838370000000     0.151720000000     0.057730000000     0.122002   
H56      H      0.913470000000     0.599880000000     0.595360000000     0.120841   
H57      H      0.935560000000     0.417840000000     0.044310000000     0.122474   
H58      H      0.816460000000     0.337100000000     0.610660000000     0.123856   
H59      H      0.912890000000     0.439120000000     0.305000000000     0.1219     
H60      H      0.827570000000     0.307950000000     0.345560000000     0.121829   
H61      H      0.098140000000     0.311970000000     0.558770000000     0.120932   
H62      H      0.661840000000     0.441080000000     0.120960000000     0.118451   
H63      H      0.108240000000     0.423660000000     0.850470000000     0.12039    
H64      H      0.618310000000     0.313900000000     0.831680000000     0.127252   
H65      H      0.804400000000     0.601370000000     0.802050000000     0.120253   
H66      H      0.929760000000     0.143340000000     0.855060000000     0.119829   
H67      H      0.835850000000     0.150130000000     0.564300000000     0.122158   
H68      H      0.927290000000     0.625970000000     0.067860000000     0.122982   
H69      H      0.931660000000     0.406850000000     0.546320000000     0.122156   
H70      H      0.821920000000     0.349970000000     0.111740000000     0.124273   
H71      H      0.911500000000     0.438490000000     0.807060000000     0.119885   
H72      H      0.827650000000     0.309270000000     0.853030000000     0.121598   
H73      H      0.135940000000     0.805630000000     0.098130000000     0.121347   
H74      H      0.659210000000     0.935840000000     0.613850000000     0.119039   
H75      H      0.103330000000     0.927900000000     0.344320000000     0.118634   
H76      H      0.619950000000     0.818110000000     0.328110000000     0.127191   
H77      H      0.810220000000     0.105750000000     0.305510000000     0.12079    
H78      H      0.927690000000     0.607690000000     0.305340000000     0.122294   
H79      H      0.827840000000     0.646690000000     0.070530000000     0.118573   
H80      H      0.911520000000     0.098350000000     0.596230000000     0.120742   
H81      H      0.915010000000     0.880000000000     0.036810000000     0.121874   
H82      H      0.819880000000     0.839620000000     0.601540000000     0.124161   
H83      H      0.910780000000     0.948130000000     0.284810000000     0.11882    
H84      H      0.828480000000     0.819270000000     0.332520000000     0.116043   
H85      H      0.099950000000     0.816430000000     0.559570000000     0.123051   
H86      H      0.658460000000     0.936050000000     0.120550000000     0.120054   
H87      H      0.104300000000     0.921890000000     0.853120000000     0.119665   
H88      H      0.616090000000     0.814750000000     0.828480000000     0.127781   
H89      H      0.809800000000     0.098450000000     0.808480000000     0.120164   
H90      H      0.924290000000     0.645720000000     0.849560000000     0.122228   
H91      H      0.840540000000     0.653170000000     0.556470000000     0.122277   
H92      H      0.908080000000     0.095100000000     0.097900000000     0.120217   
H93      H      0.936990000000     0.914320000000     0.541950000000     0.1218     
H94      H      0.804490000000     0.822920000000     0.108660000000     0.120109   
H95      H      0.908160000000     0.936850000000     0.807410000000     0.120353   
H96      H      0.821320000000     0.805270000000     0.845350000000     0.121297   
N1       N      0.628800000000     0.344250000000     0.116820000000    -0.168677   
N2       N      0.150150000000     0.407580000000     0.579050000000    -0.196687   
N3       N      0.591890000000     0.379880000000     0.335810000000    -0.18848    
N4       N      0.144640000000     0.368240000000     0.335590000000    -0.191867   
N5       N      0.347450000000     0.596530000000     0.322430000000    -0.198497   
N6       N      0.402730000000     0.128920000000     0.297150000000    -0.190479   
N7       N      0.378420000000     0.168160000000     0.072510000000    -0.189443   
N8       N      0.391850000000     0.624520000000     0.555210000000    -0.192317   
N9       N      0.398740000000     0.373470000000     0.077250000000    -0.19169    
N10      N      0.342890000000     0.366830000000     0.579910000000    -0.194322   
N11      N      0.401250000000     0.401990000000     0.305630000000    -0.191481   
N12      N      0.354880000000     0.366910000000     0.345050000000    -0.198231   
N13      N      0.625250000000     0.337970000000     0.613150000000    -0.168454   
N14      N      0.153450000000     0.411370000000     0.076590000000    -0.1976     
N15      N      0.590050000000     0.378250000000     0.835170000000    -0.188216   
N16      N      0.146670000000     0.369630000000     0.836590000000    -0.191991   
N17      N      0.350490000000     0.599830000000     0.820720000000    -0.198087   
N18      N      0.402980000000     0.128980000000     0.801030000000    -0.190063   
N19      N      0.375970000000     0.166620000000     0.572180000000    -0.18939    
N20      N      0.395480000000     0.627090000000     0.054980000000    -0.192469   
N21      N      0.395830000000     0.369760000000     0.576860000000    -0.191451   
N22      N      0.345910000000     0.370750000000     0.079560000000    -0.194589   
N23      N      0.403020000000     0.402520000000     0.804160000000    -0.191676   
N24      N      0.357110000000     0.368360000000     0.844280000000    -0.198655   
N25      N      0.624760000000     0.839320000000     0.117680000000    -0.168108   
N26      N      0.151360000000     0.912180000000     0.579600000000    -0.197606   
N27      N      0.589360000000     0.880020000000     0.337330000000    -0.189109   
N28      N      0.130960000000     0.863150000000     0.344380000000    -0.190728   
N29      N      0.346290000000     0.096300000000     0.318030000000    -0.196932   
N30      N      0.403580000000     0.629990000000     0.301210000000    -0.191161   
N31      N      0.378230000000     0.668530000000     0.073400000000    -0.190407   
N32      N      0.391640000000     0.123850000000     0.553630000000    -0.191077   
N33      N      0.396500000000     0.869180000000     0.076690000000    -0.192059   
N34      N      0.340960000000     0.866970000000     0.575970000000    -0.194468   
N35      N      0.396710000000     0.900860000000     0.302690000000    -0.191223   
N36      N      0.349070000000     0.865830000000     0.340670000000    -0.197879   
N37      N      0.624130000000     0.839000000000     0.609000000000    -0.167654   
N38      N      0.156150000000     0.898610000000     0.088110000000    -0.195844   
N39      N      0.590260000000     0.881080000000     0.831910000000    -0.188627   
N40      N      0.142790000000     0.867990000000     0.837950000000    -0.191654   
N41      N      0.347400000000     0.097530000000     0.824500000000    -0.196454   
N42      N      0.406070000000     0.632820000000     0.797910000000    -0.190838   
N43      N      0.376110000000     0.667930000000     0.570970000000    -0.190146   
N44      N      0.392290000000     0.122930000000     0.057960000000    -0.191326   
N45      N      0.394340000000     0.870830000000     0.573610000000    -0.190672   
N46      N      0.343080000000     0.864960000000     0.078320000000    -0.19613    
N47      N      0.401760000000     0.904280000000     0.801860000000    -0.19062    
N48      N      0.355340000000     0.869160000000     0.841270000000    -0.198106   
N49      N      0.104570000000     0.352370000000     0.080640000000    -0.198648   
N50      N      0.658630000000     0.399060000000     0.593140000000    -0.199654   
N51      N      0.105410000000     0.387450000000     0.323070000000    -0.192085   
N52      N      0.627770000000     0.356440000000     0.349900000000    -0.191762   
N53      N      0.846530000000     0.595630000000     0.326670000000    -0.194825   
N54      N      0.899160000000     0.151910000000     0.325310000000    -0.197872   
N55      N      0.869180000000     0.148520000000     0.083040000000    -0.1927     
N56      N      0.881840000000     0.602150000000     0.570680000000    -0.192473   
N57      N      0.906330000000     0.388280000000     0.076430000000    -0.195243   
N58      N      0.845670000000     0.365680000000     0.578000000000    -0.19777    
N59      N      0.895200000000     0.391390000000     0.308240000000    -0.19649    
N60      N      0.845590000000     0.355750000000     0.342730000000    -0.197308   
N61      N      0.101710000000     0.348390000000     0.584710000000    -0.198224   
N62      N      0.661160000000     0.405320000000     0.096390000000    -0.199532   
N63      N      0.105800000000     0.386910000000     0.826060000000    -0.192067   
N64      N      0.625090000000     0.354520000000     0.851990000000    -0.191101   
N65      N      0.836190000000     0.598670000000     0.825900000000    -0.197439   
N66      N      0.898170000000     0.145560000000     0.830250000000    -0.196038   
N67      N      0.867690000000     0.147430000000     0.588100000000    -0.193476   
N68      N      0.888830000000     0.620980000000     0.052360000000    -0.191397   
N69      N      0.902450000000     0.378600000000     0.579140000000    -0.195173   
N70      N      0.850260000000     0.377590000000     0.078000000000    -0.197396   
N71      N      0.894140000000     0.390980000000     0.812240000000    -0.195598   
N72      N      0.844640000000     0.356650000000     0.847220000000    -0.196931   
N73      N      0.122400000000     0.836940000000     0.107020000000    -0.168809   
N74      N      0.658700000000     0.899960000000     0.589630000000    -0.200031   
N75      N      0.093720000000     0.884490000000     0.328820000000    -0.187227   
N76      N      0.626610000000     0.858050000000     0.349860000000    -0.193124   
N77      N      0.842100000000     0.103890000000     0.330110000000    -0.196324   
N78      N      0.902880000000     0.628560000000     0.304560000000    -0.187294   
N79      N      0.870800000000     0.659980000000     0.076330000000    -0.189429   
N80      N      0.879780000000     0.101300000000     0.572510000000    -0.192304   
N81      N      0.887700000000     0.856130000000     0.072700000000    -0.192091   
N82      N      0.849660000000     0.869550000000     0.569970000000    -0.197949   
N83      N      0.896690000000     0.902010000000     0.294670000000    -0.190411   
N84      N      0.847760000000     0.867280000000     0.330910000000    -0.195685   
N85      N      0.103340000000     0.852820000000     0.585450000000    -0.198924   
N86      N      0.656630000000     0.899690000000     0.095960000000    -0.200842   
N87      N      0.102240000000     0.885900000000     0.827700000000    -0.191796   
N88      N      0.623670000000     0.855530000000     0.849150000000    -0.192345   
N89      N      0.841330000000     0.096480000000     0.833650000000    -0.194491   
N90      N      0.893170000000     0.647480000000     0.823360000000    -0.198008   
N91      N      0.871110000000     0.650130000000     0.582420000000    -0.192839   
N92      N      0.877400000000     0.098560000000     0.072630000000    -0.191445   
N93      N      0.906970000000     0.884660000000     0.573440000000    -0.19569    
N94      N      0.834010000000     0.851280000000     0.076120000000    -0.196732   
N95      N      0.890060000000     0.889010000000     0.809780000000    -0.195841   
N96      N      0.839940000000     0.853190000000     0.843640000000    -0.195846   
O1       O      0.363530000000     0.432210000000     0.499880000000    -0.475956   
O2       O      0.280150000000     0.523320000000     0.379310000000    -0.520697   
O3       O      0.276790000000     0.381470000000     0.535140000000    -0.501756   
O4       O      0.296680000000     0.360930000000     0.421130000000    -0.493385   
O5       O      0.370420000000     0.531960000000     0.518500000000    -0.501636   
O6       O      0.190140000000     0.437730000000     0.413240000000    -0.465682   
O7       O      0.287880000000     0.455770000000     0.455280000000    -0.870736   
O8       O      0.229450000000     0.474490000000     0.529000000000    -0.50676    
O9       O      0.188400000000     0.378210000000     0.503910000000    -0.488324   
O10      O      0.353740000000     0.449870000000     0.380860000000    -0.502792   
O11      O      0.216650000000     0.372450000000     0.388880000000    -0.502762   
O12      O      0.315750000000     0.567460000000     0.491390000000    -0.471392   
O13      O      0.368620000000     0.552420000000     0.399920000000    -0.486489   
O14      O      0.405510000000     0.317570000000     0.282450000000    -0.49133    
O15      O      0.460030000000     0.239200000000     0.123670000000    -0.464814   
O16      O      0.458950000000     0.402380000000     0.230010000000    -0.449333   
O17      O      0.468150000000     0.364240000000     0.120570000000    -0.486658   
O18      O      0.395950000000     0.212510000000     0.272630000000    -0.483102   
O19      O      0.556010000000     0.271850000000     0.171990000000    -0.496199   
O20      O      0.458950000000     0.301220000000     0.209690000000    -0.998026   
O21      O      0.534440000000     0.302510000000     0.269190000000    -0.457953   
O22      O      0.541660000000     0.392550000000     0.262310000000    -0.487641   
O23      O      0.382980000000     0.317210000000     0.164240000000    -0.474785   
O24      O      0.558620000000     0.360890000000     0.152250000000    -0.494338   
O25      O      0.462040000000     0.198080000000     0.229150000000    -0.492126   
O26      O      0.374280000000     0.214150000000     0.157200000000    -0.524008   
O27      O      0.367030000000     0.435410000000     0.998680000000    -0.474534   
O28      O      0.283810000000     0.526870000000     0.878230000000    -0.521166   
O29      O      0.280270000000     0.385360000000     0.034080000000    -0.503331   
O30      O      0.300020000000     0.363780000000     0.920670000000    -0.496577   
O31      O      0.375120000000     0.535690000000     0.016220000000    -0.502949   
O32      O      0.193950000000     0.441160000000     0.912250000000    -0.464438   
O33      O      0.291780000000     0.459260000000     0.953900000000    -0.871933   
O34      O      0.233710000000     0.478080000000     0.027990000000    -0.507675   
O35      O      0.192190000000     0.382010000000     0.002350000000    -0.491677   
O36      O      0.356800000000     0.452100000000     0.879230000000    -0.502714   
O37      O      0.220510000000     0.375910000000     0.887760000000    -0.503436   
O38      O      0.319850000000     0.570840000000     0.990330000000    -0.47283    
O39      O      0.372400000000     0.555300000000     0.897500000000    -0.484864   
O40      O      0.405850000000     0.317090000000     0.781960000000    -0.4914     
O41      O      0.457820000000     0.235950000000     0.623760000000    -0.465371   
O42      O      0.459140000000     0.400890000000     0.727990000000    -0.449842   
O43      O      0.465860000000     0.360480000000     0.618920000000    -0.48445    
O44      O      0.395460000000     0.211560000000     0.773850000000    -0.483021   
O45      O      0.553770000000     0.267840000000     0.671340000000    -0.495985   
O46      O      0.457850000000     0.298940000000     0.709040000000    -0.998763   
O47      O      0.533330000000     0.300310000000     0.768560000000    -0.457434   
O48      O      0.541730000000     0.390770000000     0.759490000000    -0.487839   
O49      O      0.381470000000     0.314630000000     0.664260000000    -0.475476   
O50      O      0.556510000000     0.356550000000     0.649570000000    -0.493466   
O51      O      0.460250000000     0.195460000000     0.729840000000    -0.49055    
O52      O      0.372440000000     0.211410000000     0.658170000000    -0.522459   
O53      O      0.360650000000     0.931200000000     0.495010000000    -0.477381   
O54      O      0.278090000000     0.024530000000     0.376080000000    -0.512526   
O55      O      0.274640000000     0.881880000000     0.531820000000    -0.502309   
O56      O      0.290860000000     0.860530000000     0.416530000000    -0.492965   
O57      O      0.368870000000     0.031510000000     0.514970000000    -0.498961   
O58      O      0.186360000000     0.940630000000     0.413010000000    -0.45931    
O59      O      0.285010000000     0.956550000000     0.452320000000    -0.867396   
O60      O      0.229230000000     0.978390000000     0.527140000000    -0.507377   
O61      O      0.187260000000     0.881490000000     0.503880000000    -0.493749   
O62      O      0.349340000000     0.949380000000     0.376780000000    -0.503636   
O63      O      0.209940000000     0.873070000000     0.388080000000    -0.496929   
O64      O      0.316020000000     0.069360000000     0.488130000000    -0.465858   
O65      O      0.366350000000     0.052520000000     0.396600000000    -0.484276   
O66      O      0.402980000000     0.816920000000     0.282990000000    -0.490276   
O67      O      0.458970000000     0.738560000000     0.125740000000    -0.468171   
O68      O      0.456460000000     0.901110000000     0.229610000000    -0.448516   
O69      O      0.466270000000     0.861670000000     0.121260000000    -0.487612   
O70      O      0.394650000000     0.712010000000     0.275200000000    -0.482848   
O71      O      0.553550000000     0.769280000000     0.175330000000    -0.499198   
O72      O      0.456900000000     0.799910000000     0.211410000000    -1.00372    
O73      O      0.532290000000     0.802000000000     0.271410000000    -0.460759   
O74      O      0.539060000000     0.891770000000     0.263440000000    -0.488943   
O75      O      0.380850000000     0.814450000000     0.164560000000    -0.476011   
O76      O      0.556200000000     0.858050000000     0.154170000000    -0.498305   
O77      O      0.460510000000     0.697530000000     0.231370000000    -0.497048   
O78      O      0.372880000000     0.711900000000     0.159390000000    -0.525018   
O79      O      0.364100000000     0.931340000000     0.999000000000    -0.477891   
O80      O      0.279890000000     0.024620000000     0.882280000000    -0.513265   
O81      O      0.277120000000     0.878590000000     0.032960000000    -0.509566   
O82      O      0.297440000000     0.861580000000     0.918130000000    -0.496716   
O83      O      0.370130000000     0.030350000000     0.020220000000    -0.497259   
O84      O      0.189460000000     0.936950000000     0.915640000000    -0.465673   
O85      O      0.287870000000     0.955000000000     0.955900000000    -0.867374   
O86      O      0.227990000000     0.970490000000     0.031350000000    -0.502403   
O87      O      0.189180000000     0.874630000000     0.004530000000    -0.487562   
O88      O      0.354860000000     0.951580000000     0.880320000000    -0.501366   
O89      O      0.216800000000     0.873200000000     0.888030000000    -0.503391   
O90      O      0.314960000000     0.065780000000     0.995110000000    -0.468264   
O91      O      0.368500000000     0.053070000000     0.901880000000    -0.482954   
O92      O      0.405970000000     0.819640000000     0.779560000000    -0.490505   
O93      O      0.457900000000     0.739240000000     0.620890000000    -0.468344   
O94      O      0.458700000000     0.903600000000     0.725590000000    -0.445198   
O95      O      0.465160000000     0.863210000000     0.616210000000    -0.482433   
O96      O      0.396540000000     0.714390000000     0.771310000000    -0.482125   
O97      O      0.553400000000     0.770470000000     0.668280000000    -0.49882    
O98      O      0.457850000000     0.801890000000     0.706230000000    -1.00172    
O99      O      0.533470000000     0.803510000000     0.765290000000    -0.460739   
O100     O      0.541940000000     0.893980000000     0.756370000000    -0.487246   
O101     O      0.380850000000     0.816830000000     0.661860000000    -0.473238   
O102     O      0.556280000000     0.859210000000     0.646130000000    -0.49109    
O103     O      0.461280000000     0.699040000000     0.726180000000    -0.497019   
O104     O      0.372530000000     0.713880000000     0.655950000000    -0.524193   
O105     O      0.859680000000     0.421730000000     0.493120000000    -0.492274   
O106     O      0.777200000000     0.518920000000     0.381170000000    -0.505637   
O107     O      0.775170000000     0.372580000000     0.533300000000    -0.510021   
O108     O      0.787430000000     0.351010000000     0.417540000000    -0.497155   
O109     O      0.867190000000     0.519270000000     0.518000000000    -0.504501   
O110     O      0.684930000000     0.433120000000     0.417690000000    -0.46593    
O111     O      0.782810000000     0.447170000000     0.455060000000    -0.869967   
O112     O      0.726860000000     0.467710000000     0.531620000000    -0.511703   
O113     O      0.686670000000     0.370670000000     0.509430000000    -0.499931   
O114     O      0.845090000000     0.439980000000     0.376990000000    -0.498527   
O115     O      0.705840000000     0.363320000000     0.392650000000    -0.499897   
O116     O      0.814210000000     0.558110000000     0.495310000000    -0.472425   
O117     O      0.865090000000     0.545350000000     0.400620000000    -0.485695   
O118     O      0.898180000000     0.307890000000     0.275460000000    -0.49493    
O119     O      0.935980000000     0.192920000000     0.159870000000    -0.467282   
O120     O      0.956010000000     0.397550000000     0.235930000000    -0.493144   
O121     O      0.975630000000     0.378580000000     0.121700000000    -0.499597   
O122     O      0.881120000000     0.202730000000     0.251050000000    -0.488733   
O123     O      0.024130000000     0.285170000000     0.128210000000    -0.510542   
O124     O      0.964320000000     0.303060000000     0.200830000000    -0.873231   
O125     O      0.060000000000     0.318200000000     0.245250000000    -0.465672   
O126     O      0.035250000000     0.385380000000     0.268210000000    -0.502188   
O127     O      0.889430000000     0.328040000000     0.158400000000    -0.489322   
O128     O      0.064420000000     0.381150000000     0.153900000000    -0.494925   
O129     O      0.968370000000     0.232400000000     0.276100000000    -0.512331   
O130     O      0.883760000000     0.231800000000     0.134110000000    -0.505714   
O131     O      0.861340000000     0.431540000000     0.992160000000    -0.490371   
O132     O      0.769360000000     0.517410000000     0.877860000000    -0.504638   
O133     O      0.778040000000     0.382400000000     0.035390000000    -0.50965    
O134     O      0.787300000000     0.354860000000     0.921340000000    -0.499027   
O135     O      0.868320000000     0.530530000000     0.010860000000    -0.501719   
O136     O      0.680750000000     0.432270000000     0.919490000000    -0.463455   
O137     O      0.781160000000     0.451710000000     0.954370000000    -0.86886    
O138     O      0.726520000000     0.473320000000     0.031720000000    -0.507691   
O139     O      0.687250000000     0.375860000000     0.012280000000    -0.501372   
O140     O      0.841430000000     0.441470000000     0.875280000000    -0.495224   
O141     O      0.703710000000     0.363700000000     0.896020000000    -0.498539   
O142     O      0.810890000000     0.564330000000     0.989790000000    -0.466141   
O143     O      0.858330000000     0.547260000000     0.894510000000    -0.495432   
O144     O      0.897760000000     0.306510000000     0.783070000000    -0.490755   
O145     O      0.934030000000     0.189860000000     0.665540000000    -0.469344   
O146     O      0.954480000000     0.394840000000     0.740610000000    -0.493267   
O147     O      0.972750000000     0.373120000000     0.627050000000    -0.501203   
O148     O      0.879460000000     0.199650000000     0.759670000000    -0.484126   
O149     O      0.021820000000     0.281570000000     0.633730000000    -0.509048   
O150     O      0.962290000000     0.299390000000     0.707340000000    -0.870512   
O151     O      0.058240000000     0.315090000000     0.750750000000    -0.464574   
O152     O      0.033860000000     0.382820000000     0.773060000000    -0.502707   
O153     O      0.887000000000     0.324000000000     0.665240000000    -0.485038   
O154     O      0.062470000000     0.377520000000     0.658930000000    -0.494545   
O155     O      0.966990000000     0.228180000000     0.782220000000    -0.507165   
O156     O      0.879850000000     0.227310000000     0.643000000000    -0.510325   
O157     O      0.863060000000     0.927250000000     0.486040000000    -0.487848   
O158     O      0.774780000000     0.021310000000     0.379670000000    -0.505404   
O159     O      0.778750000000     0.875660000000     0.526370000000    -0.514471   
O160     O      0.791020000000     0.859290000000     0.408660000000    -0.493122   
O161     O      0.866590000000     0.021470000000     0.516170000000    -0.504722   
O162     O      0.684070000000     0.935020000000     0.417130000000    -0.467928   
O163     O      0.783680000000     0.951070000000     0.451620000000    -0.871408   
O164     O      0.727720000000     0.968960000000     0.529990000000    -0.516471   
O165     O      0.689170000000     0.872190000000     0.506830000000    -0.494957   
O166     O      0.848270000000     0.950290000000     0.371180000000    -0.494186   
O167     O      0.707120000000     0.867980000000     0.388520000000    -0.505393   
O168     O      0.813440000000     0.060450000000     0.495070000000    -0.465937   
O169     O      0.863270000000     0.052880000000     0.401030000000    -0.48564    
O170     O      0.905190000000     0.818230000000     0.281010000000    -0.48448    
O171     O      0.954290000000     0.731320000000     0.124800000000    -0.462986   
O172     O      0.955860000000     0.899190000000     0.222800000000    -0.449977   
O173     O      0.960960000000     0.854150000000     0.116100000000    -0.486258   
O174     O      0.896600000000     0.712390000000     0.277910000000    -0.476271   
O175     O      0.052790000000     0.767110000000     0.168360000000    -0.489923   
O176     O      0.956400000000     0.797210000000     0.208720000000    -0.987559   
O177     O      0.035290000000     0.803070000000     0.265820000000    -0.451742   
O178     O      0.040440000000     0.891940000000     0.255020000000    -0.48314    
O179     O      0.877560000000     0.808200000000     0.163630000000    -0.476094   
O180     O      0.053700000000     0.854570000000     0.145950000000    -0.492006   
O181     O      0.960520000000     0.695330000000     0.232840000000    -0.478945   
O182     O      0.869960000000     0.705840000000     0.162770000000    -0.519635   
O183     O      0.852350000000     0.915440000000     0.995790000000    -0.482664   
O184     O      0.772460000000     0.013600000000     0.881430000000    -0.501967   
O185     O      0.767540000000     0.867580000000     0.035010000000    -0.50851    
O186     O      0.780850000000     0.847580000000     0.918250000000    -0.491575   
O187     O      0.859610000000     0.013300000000     0.022380000000    -0.499078   
O188     O      0.679750000000     0.930950000000     0.918520000000    -0.466495   
O189     O      0.776930000000     0.943400000000     0.957130000000    -0.868895   
O190     O      0.722050000000     0.966610000000     0.031930000000    -0.517207   
O191     O      0.681110000000     0.869020000000     0.011210000000    -0.498127   
O192     O      0.840400000000     0.937410000000     0.879880000000    -0.494146   
O193     O      0.699980000000     0.860640000000     0.893990000000    -0.502595   
O194     O      0.809970000000     0.055240000000     0.996410000000    -0.464663   
O195     O      0.859930000000     0.043230000000     0.905480000000    -0.475927   
O196     O      0.893270000000     0.805830000000     0.775960000000    -0.493165   
O197     O      0.934750000000     0.692890000000     0.661860000000    -0.470241   
O198     O      0.952670000000     0.896250000000     0.738830000000    -0.491583   
O199     O      0.975890000000     0.879470000000     0.625020000000    -0.501174   
O200     O      0.877080000000     0.701080000000     0.750630000000    -0.488855   
O201     O      0.023240000000     0.785280000000     0.632810000000    -0.513413   
O202     O      0.961920000000     0.802400000000     0.703570000000    -0.873171   
O203     O      0.056560000000     0.816700000000     0.750160000000    -0.467862   
O204     O      0.031350000000     0.883410000000     0.773390000000    -0.499903   
O205     O      0.888570000000     0.828100000000     0.658490000000    -0.49075    
O206     O      0.063240000000     0.881060000000     0.659390000000    -0.49364    
O207     O      0.963600000000     0.730660000000     0.778770000000    -0.51254    
O208     O      0.883410000000     0.732190000000     0.634110000000    -0.506898   


