data_structure

_audit_creation_method RASPA-1.0
_audit_creation_date 2023-6-4
_audit_author_name 'Poobodin Mano'

_cell_length_a    25.1856
_cell_length_b    23.2556
_cell_length_c    27.0202
_cell_angle_alpha 90
_cell_angle_beta  90
_cell_angle_gamma 120.6
_cell_volume      13622

_symmetry_cell_setting          triclinic
_symmetry_space_group_name_Hall 'P 1'
_symmetry_space_group_name_H-M  'P 1'
_symmetry_Int_Tables_number     1

_symmetry_equiv_pos_as_xyz 'x,y,z'

loop_
_atom_site_label
_atom_site_type_symbol
_atom_site_fract_x
_atom_site_fract_y
_atom_site_fract_z
_atom_site_charge
C1       C      0.506840000000     0.495520000000     0.385660000000     0.535951   
C2       C      0.500830000000     0.579720000000     0.499160000000     0.534329   
C3       C      0.357970000000     0.584390000000     0.452610000000     0.534844   
C4       C      0.511270000000     0.640870000000     0.302560000000     0.543517   
C5       C      0.527010000000     0.733200000000     0.408730000000     0.541533   
C6       C      0.350210000000     0.487500000000     0.344870000000     0.541017   
C7       C      0.540570000000     0.465760000000     0.112370000000     0.54997    
C8       C      0.545030000000     0.411050000000     0.238210000000     0.546058   
C9       C      0.705140000000     0.415950000000     0.205560000000     0.539597   
C10      C      0.562000000000     0.334320000000     0.049480000000     0.542929   
C11      C      0.554760000000     0.254140000000     0.161970000000     0.532316   
C12      C      0.713850000000     0.505240000000     0.092140000000     0.552944   
C13      C      0.792050000000     0.536690000000     0.526050000000     0.0899631  
C14      C      0.274770000000     0.464080000000     0.278390000000     0.0927398  
C15      C      0.494950000000     0.654320000000     0.214500000000     0.0954522  
C16      C      0.587850000000     0.331090000000     0.462130000000     0.0974375  
C17      C      0.558630000000     0.570400000000     0.069920000000     0.0886213  
C18      C      0.556840000000     0.457310000000     0.323620000000     0.0860204  
C19      C      0.506420000000     0.495030000000     0.885370000000     0.535904   
C20      C      0.500280000000     0.578860000000     0.999030000000     0.533695   
C21      C      0.357580000000     0.583830000000     0.952510000000     0.534638   
C22      C      0.511150000000     0.640940000000     0.802570000000     0.54339    
C23      C      0.526850000000     0.732730000000     0.909040000000     0.541287   
C24      C      0.350030000000     0.487390000000     0.844560000000     0.540955   
C25      C      0.540700000000     0.466230000000     0.611970000000     0.549959   
C26      C      0.544730000000     0.411140000000     0.737740000000     0.54566    
C27      C      0.704880000000     0.415930000000     0.705290000000     0.539851   
C28      C      0.561960000000     0.334570000000     0.549050000000     0.543264   
C29      C      0.554410000000     0.254360000000     0.661700000000     0.532302   
C30      C      0.713920000000     0.505480000000     0.592030000000     0.552641   
C31      C      0.790270000000     0.535100000000     0.025020000000     0.0898415  
C32      C      0.274670000000     0.464130000000     0.778050000000     0.0927937  
C33      C      0.494830000000     0.654840000000     0.714600000000     0.0953312  
C34      C      0.587930000000     0.330320000000     0.962680000000     0.0968795  
C35      C      0.558970000000     0.571250000000     0.570110000000     0.0887089  
C36      C      0.556470000000     0.456920000000     0.823300000000     0.0860046  
C37      C      0.506950000000     0.996230000000     0.385540000000     0.535759   
C38      C      0.500840000000     0.080310000000     0.499050000000     0.534261   
C39      C      0.357960000000     0.084980000000     0.452450000000     0.534723   
C40      C      0.511230000000     0.141380000000     0.302440000000     0.543577   
C41      C      0.526840000000     0.233770000000     0.408600000000     0.541172   
C42      C      0.350180000000     0.988030000000     0.344760000000     0.541113   
C43      C      0.540520000000     0.966240000000     0.112280000000     0.549914   
C44      C      0.545140000000     0.911690000000     0.238140000000     0.546107   
C45      C      0.705260000000     0.916600000000     0.205360000000     0.539723   
C46      C      0.561880000000     0.834720000000     0.049420000000     0.543092   
C47      C      0.554980000000     0.754820000000     0.162000000000     0.53245    
C48      C      0.713810000000     0.005820000000     0.091940000000     0.55307    
C49      C      0.792020000000     0.037290000000     0.525880000000     0.0899808  
C50      C      0.274840000000     0.964670000000     0.278230000000     0.0927878  
C51      C      0.494580000000     0.153630000000     0.214280000000     0.0958816  
C52      C      0.587860000000     0.830360000000     0.462350000000     0.0976303  
C53      C      0.558660000000     0.070820000000     0.069700000000     0.0885782  
C54      C      0.557020000000     0.958070000000     0.323520000000     0.0860059  
C55      C      0.506560000000     0.995800000000     0.885260000000     0.53578    
C56      C      0.500300000000     0.079490000000     0.998920000000     0.534038   
C57      C      0.357560000000     0.084440000000     0.952350000000     0.534593   
C58      C      0.511110000000     0.141490000000     0.802450000000     0.543416   
C59      C      0.526660000000     0.233330000000     0.908890000000     0.541078   
C60      C      0.350020000000     0.987930000000     0.844450000000     0.541238   
C61      C      0.540650000000     0.966710000000     0.611890000000     0.549757   
C62      C      0.544850000000     0.911790000000     0.737690000000     0.545658   
C63      C      0.705000000000     0.916570000000     0.705090000000     0.540215   
C64      C      0.561840000000     0.834980000000     0.549000000000     0.543328   
C65      C      0.554630000000     0.755030000000     0.661740000000     0.532609   
C66      C      0.713880000000     0.006040000000     0.591830000000     0.552858   
C67      C      0.790230000000     0.035720000000     0.024840000000     0.0898312  
C68      C      0.274750000000     0.964720000000     0.777880000000     0.0928617  
C69      C      0.494460000000     0.154150000000     0.714360000000     0.0957677  
C70      C      0.587980000000     0.829520000000     0.962920000000     0.0970867  
C71      C      0.558990000000     0.071660000000     0.569900000000     0.0887982  
C72      C      0.556660000000     0.957750000000     0.823200000000     0.0860867  
C73      C      0.006930000000     0.495470000000     0.385490000000     0.530682   
C74      C      0.000820000000     0.579530000000     0.499020000000     0.528613   
C75      C      0.857840000000     0.584120000000     0.452420000000     0.534962   
C76      C      0.011340000000     0.640850000000     0.302470000000     0.53799    
C77      C      0.027050000000     0.733110000000     0.408660000000     0.535495   
C78      C      0.850250000000     0.487430000000     0.344700000000     0.540861   
C79      C      0.040590000000     0.465530000000     0.112190000000     0.550366   
C80      C      0.045120000000     0.410950000000     0.238060000000     0.546123   
C81      C      0.205200000000     0.415900000000     0.205540000000     0.53951    
C82      C      0.062240000000     0.334240000000     0.049380000000     0.542893   
C83      C      0.054910000000     0.253990000000     0.161860000000     0.532383   
C84      C      0.214110000000     0.505140000000     0.092140000000     0.552136   
C85      C      0.294300000000     0.538070000000     0.527440000000     0.0897505  
C86      C      0.774090000000     0.463730000000     0.278760000000     0.0924269  
C87      C      0.995050000000     0.654170000000     0.214370000000     0.101409   
C88      C      0.088080000000     0.331040000000     0.461990000000     0.097134   
C89      C      0.058550000000     0.570130000000     0.069760000000     0.088474   
C90      C      0.056940000000     0.457300000000     0.323430000000     0.0857966  
C91      C      0.006550000000     0.494980000000     0.885190000000     0.530365   
C92      C      0.000200000000     0.578620000000     0.998880000000     0.528072   
C93      C      0.857380000000     0.583480000000     0.952210000000     0.534745   
C94      C      0.011310000000     0.640960000000     0.802460000000     0.537761   
C95      C      0.026900000000     0.732630000000     0.908960000000     0.535285   
C96      C      0.850140000000     0.487320000000     0.844290000000     0.540612   
C97      C      0.040770000000     0.466040000000     0.611800000000     0.55019    
C98      C      0.044900000000     0.411070000000     0.737600000000     0.545846   
C99      C      0.205050000000     0.415980000000     0.705230000000     0.539838   
C100     C      0.062270000000     0.334530000000     0.548940000000     0.543348   
C101     C      0.054700000000     0.254300000000     0.661590000000     0.532336   
C102     C      0.214180000000     0.505450000000     0.591970000000     0.552073   
C103     C      0.293250000000     0.536870000000     0.026950000000     0.0896304  
C104     C      0.773990000000     0.463740000000     0.778380000000     0.092542   
C105     C      0.995080000000     0.654740000000     0.714450000000     0.101341   
C106     C      0.088130000000     0.330250000000     0.962550000000     0.0965695  
C107     C      0.058970000000     0.571010000000     0.569940000000     0.0886132  
C108     C      0.056640000000     0.456940000000     0.823120000000     0.0858687  
C109     C      0.007040000000     0.996180000000     0.385370000000     0.530657   
C110     C      0.000840000000     0.080110000000     0.498910000000     0.528516   
C111     C      0.857830000000     0.084710000000     0.452260000000     0.534843   
C112     C      0.011310000000     0.141370000000     0.302350000000     0.537869   
C113     C      0.026890000000     0.233680000000     0.408530000000     0.535172   
C114     C      0.850230000000     0.987970000000     0.344590000000     0.540798   
C115     C      0.040550000000     0.966010000000     0.112100000000     0.550264   
C116     C      0.045230000000     0.911590000000     0.237990000000     0.546245   
C117     C      0.205320000000     0.916550000000     0.205330000000     0.539532   
C118     C      0.062120000000     0.834630000000     0.049320000000     0.542962   
C119     C      0.055120000000     0.754660000000     0.161890000000     0.532579   
C120     C      0.214060000000     0.005710000000     0.091940000000     0.552374   
C121     C      0.294280000000     0.038670000000     0.527280000000     0.0897852  
C122     C      0.774170000000     0.964330000000     0.278590000000     0.0924625  
C123     C      0.994700000000     0.153490000000     0.214150000000     0.101878   
C124     C      0.088080000000     0.830310000000     0.462210000000     0.0973069  
C125     C      0.058570000000     0.070550000000     0.069540000000     0.088434   
C126     C      0.057110000000     0.958070000000     0.323330000000     0.08584    
C127     C      0.006690000000     0.995750000000     0.885080000000     0.530407   
C128     C      0.000230000000     0.079250000000     0.998760000000     0.528131   
C129     C      0.857370000000     0.084090000000     0.952050000000     0.534755   
C130     C      0.011280000000     0.141510000000     0.802340000000     0.537699   
C131     C      0.026710000000     0.233240000000     0.908820000000     0.534963   
C132     C      0.850130000000     0.987870000000     0.844180000000     0.540827   
C133     C      0.040720000000     0.966520000000     0.611720000000     0.549924   
C134     C      0.045030000000     0.911720000000     0.737540000000     0.545941   
C135     C      0.205170000000     0.916620000000     0.705040000000     0.540076   
C136     C      0.062140000000     0.834930000000     0.548900000000     0.543265   
C137     C      0.054900000000     0.754950000000     0.661620000000     0.532295   
C138     C      0.214140000000     0.006010000000     0.591780000000     0.552102   
C139     C      0.293230000000     0.037500000000     0.026780000000     0.0896299  
C140     C      0.774080000000     0.964340000000     0.778210000000     0.0925588  
C141     C      0.994720000000     0.154070000000     0.714210000000     0.101788   
C142     C      0.088180000000     0.829440000000     0.962790000000     0.0967337  
C143     C      0.058990000000     0.071420000000     0.569740000000     0.0886168  
C144     C      0.056840000000     0.957770000000     0.823010000000     0.0858799  
Fe1      Fe     0.415480000000     0.513680000000     0.428370000000     1.35336    
Fe2      Fe     0.424960000000     0.621170000000     0.368860000000     1.36566    
Fe3      Fe     0.535760000000     0.623300000000     0.401280000000     1.33911    
Fe4      Fe     0.637470000000     0.475240000000     0.170630000000     1.34759    
Fe5      Fe     0.646990000000     0.371830000000     0.118680000000     1.3702     
Fe6      Fe     0.527090000000     0.348050000000     0.145240000000     1.36271    
Fe7      Fe     0.415080000000     0.513190000000     0.928110000000     1.35363    
Fe8      Fe     0.424770000000     0.620980000000     0.868880000000     1.36564    
Fe9      Fe     0.535440000000     0.622760000000     0.901230000000     1.33895    
Fe10     Fe     0.637330000000     0.475330000000     0.670370000000     1.34757    
Fe11     Fe     0.646810000000     0.371900000000     0.618360000000     1.37046    
Fe12     Fe     0.526920000000     0.348400000000     0.644700000000     1.3623     
Fe13     Fe     0.415490000000     0.014260000000     0.428250000000     1.35357    
Fe14     Fe     0.424930000000     0.121690000000     0.368700000000     1.36577    
Fe15     Fe     0.535730000000     0.123980000000     0.401180000000     1.33872    
Fe16     Fe     0.637500000000     0.975840000000     0.170500000000     1.34766    
Fe17     Fe     0.646990000000     0.872410000000     0.118510000000     1.37052    
Fe18     Fe     0.527120000000     0.848600000000     0.145210000000     1.36235    
Fe19     Fe     0.415110000000     0.013810000000     0.927990000000     1.35377    
Fe20     Fe     0.424730000000     0.121520000000     0.868710000000     1.36561    
Fe21     Fe     0.535430000000     0.123490000000     0.901130000000     1.33831    
Fe22     Fe     0.637370000000     0.975920000000     0.670240000000     1.34754    
Fe23     Fe     0.646810000000     0.872470000000     0.618210000000     1.37067    
Fe24     Fe     0.526950000000     0.848930000000     0.644690000000     1.36212    
Fe25     Fe     0.915530000000     0.513540000000     0.428190000000     1.3526     
Fe26     Fe     0.924980000000     0.621090000000     0.368760000000     1.36467    
Fe27     Fe     0.035790000000     0.623220000000     0.401170000000     1.33393    
Fe28     Fe     0.137520000000     0.475130000000     0.170440000000     1.34723    
Fe29     Fe     0.147160000000     0.371710000000     0.118650000000     1.36968    
Fe30     Fe     0.027200000000     0.347870000000     0.145120000000     1.36225    
Fe31     Fe     0.915140000000     0.513030000000     0.927860000000     1.3527     
Fe32     Fe     0.924830000000     0.620890000000     0.868730000000     1.36452    
Fe33     Fe     0.035500000000     0.622680000000     0.901120000000     1.33366    
Fe34     Fe     0.137450000000     0.475280000000     0.670180000000     1.34733    
Fe35     Fe     0.147080000000     0.371880000000     0.618320000000     1.3698     
Fe36     Fe     0.027120000000     0.348260000000     0.644580000000     1.36193    
Fe37     Fe     0.915550000000     0.014130000000     0.428070000000     1.35257    
Fe38     Fe     0.924950000000     0.121610000000     0.368600000000     1.36445    
Fe39     Fe     0.035780000000     0.123900000000     0.401070000000     1.33363    
Fe40     Fe     0.137560000000     0.975720000000     0.170310000000     1.34734    
Fe41     Fe     0.147160000000     0.872290000000     0.118490000000     1.3699     
Fe42     Fe     0.027230000000     0.848410000000     0.145090000000     1.36211    
Fe43     Fe     0.915170000000     0.013650000000     0.927750000000     1.35295    
Fe44     Fe     0.924790000000     0.121430000000     0.868560000000     1.36463    
Fe45     Fe     0.035490000000     0.123410000000     0.901020000000     1.33319    
Fe46     Fe     0.137490000000     0.975860000000     0.670050000000     1.34745    
Fe47     Fe     0.147070000000     0.872440000000     0.618160000000     1.37021    
Fe48     Fe     0.027150000000     0.848790000000     0.644570000000     1.36181    
H1       H      0.748770000000     0.591800000000     0.050790000000     0.110268   
H2       H      0.333400000000     0.638360000000     0.998110000000     0.108441   
H3       H      0.327460000000     0.533420000000     0.050870000000     0.0295783  
H4       H      0.763500000000     0.488260000000     0.506520000000     0.0326364  
H5       H      0.306760000000     0.398560000000     0.306600000000     0.109149   
H6       H      0.740810000000     0.367370000000     0.244250000000     0.11139    
H7       H      0.242200000000     0.472180000000     0.300940000000     0.0304073  
H8       H      0.306030000000     0.512350000000     0.259590000000     0.0301422  
H9       H      0.581770000000     0.684490000000     0.251470000000     0.116501   
H10      H      0.551290000000     0.164240000000     0.151910000000     0.109966   
H11      H      0.465160000000     0.600560000000     0.205070000000     0.0230613  
H12      H      0.463360000000     0.172770000000     0.223810000000     0.0300435  
H13      H      0.497050000000     0.277080000000     0.996980000000     0.120369   
H14      H      0.542450000000     0.827960000000     0.394790000000     0.109917   
H15      H      0.614210000000     0.386380000000     0.457950000000     0.0245138  
H16      H      0.620990000000     0.314200000000     0.470740000000     0.0282417  
H17      H      0.489360000000     0.470060000000     0.554470000000     0.114643   
H18      H      0.484210000000     0.588540000000     0.572420000000     0.111346   
H19      H      0.578120000000     0.598470000000     0.104850000000     0.0233474  
H20      H      0.597120000000     0.581700000000     0.044100000000     0.0309867  
H21      H      0.493650000000     0.400000000000     0.382400000000     0.107069   
H22      H      0.472530000000     0.383200000000     0.287180000000     0.114118   
H23      H      0.581560000000     0.509950000000     0.310500000000     0.0340905  
H24      H      0.592400000000     0.444940000000     0.334620000000     0.0252756  
H25      H      0.750370000000     0.593200000000     0.551870000000     0.110106   
H26      H      0.333760000000     0.639110000000     0.497960000000     0.108511   
H27      H      0.328580000000     0.535090000000     0.551580000000     0.0291133  
H28      H      0.760570000000     0.487910000000     0.004380000000     0.0324355  
H29      H      0.306650000000     0.398570000000     0.806150000000     0.109158   
H30      H      0.740400000000     0.367240000000     0.744000000000     0.111381   
H31      H      0.242150000000     0.472290000000     0.800620000000     0.0303604  
H32      H      0.305960000000     0.512370000000     0.759230000000     0.0300897  
H33      H      0.581680000000     0.684930000000     0.751510000000     0.116442   
H34      H      0.551190000000     0.164530000000     0.652070000000     0.109991   
H35      H      0.464850000000     0.601090000000     0.705220000000     0.0231732  
H36      H      0.463410000000     0.173490000000     0.723950000000     0.0301273  
H37      H      0.496870000000     0.278450000000     0.496280000000     0.120438   
H38      H      0.542390000000     0.827640000000     0.895540000000     0.109821   
H39      H      0.614180000000     0.385580000000     0.958280000000     0.0245716  
H40      H      0.620380000000     0.312410000000     0.971060000000     0.0282701  
H41      H      0.488810000000     0.469070000000     0.055020000000     0.114796   
H42      H      0.483790000000     0.587660000000     0.072490000000     0.111362   
H43      H      0.578600000000     0.599330000000     0.605010000000     0.0231861  
H44      H      0.598030000000     0.583390000000     0.544700000000     0.0308367  
H45      H      0.493180000000     0.399490000000     0.881990000000     0.107119   
H46      H      0.472110000000     0.383440000000     0.786560000000     0.114163   
H47      H      0.581430000000     0.509670000000     0.810380000000     0.0340585  
H48      H      0.591820000000     0.444210000000     0.834240000000     0.0252714  
H49      H      0.748730000000     0.092410000000     0.050630000000     0.110285   
H50      H      0.333300000000     0.138950000000     0.997880000000     0.108511   
H51      H      0.327460000000     0.034110000000     0.050710000000     0.0295977  
H52      H      0.763500000000     0.988860000000     0.506350000000     0.032686   
H53      H      0.306780000000     0.899110000000     0.306460000000     0.109196   
H54      H      0.741060000000     0.868080000000     0.243950000000     0.111454   
H55      H      0.242210000000     0.972720000000     0.300740000000     0.0304688  
H56      H      0.306140000000     0.012980000000     0.259480000000     0.0300998  
H57      H      0.581670000000     0.185150000000     0.251250000000     0.116338   
H58      H      0.551430000000     0.664800000000     0.151940000000     0.109914   
H59      H      0.464730000000     0.099810000000     0.205080000000     0.0229216  
H60      H      0.464610000000     0.674400000000     0.224560000000     0.0302978  
H61      H      0.496990000000     0.776990000000     0.997010000000     0.120095   
H62      H      0.543430000000     0.328950000000     0.393990000000     0.109861   
H63      H      0.615110000000     0.885580000000     0.457890000000     0.0245942  
H64      H      0.621050000000     0.813580000000     0.471080000000     0.027949   
H65      H      0.489270000000     0.970470000000     0.554400000000     0.1146     
H66      H      0.484250000000     0.088980000000     0.572340000000     0.111485   
H67      H      0.578340000000     0.098970000000     0.104570000000     0.0233832  
H68      H      0.597020000000     0.081970000000     0.043780000000     0.0310145  
H69      H      0.493910000000     0.900770000000     0.382340000000     0.107      
H70      H      0.472680000000     0.883900000000     0.287140000000     0.114075   
H71      H      0.581670000000     0.010710000000     0.310370000000     0.0340632  
H72      H      0.592620000000     0.945760000000     0.334510000000     0.025494   
H73      H      0.750330000000     0.093780000000     0.551710000000     0.110127   
H74      H      0.333680000000     0.139690000000     0.497750000000     0.108515   
H75      H      0.328580000000     0.035730000000     0.551420000000     0.0291413  
H76      H      0.760550000000     0.988530000000     0.004200000000     0.0324786  
H77      H      0.306700000000     0.899130000000     0.806010000000     0.109178   
H78      H      0.740640000000     0.867930000000     0.743720000000     0.111416   
H79      H      0.242180000000     0.972840000000     0.800420000000     0.0304221  
H80      H      0.306070000000     0.012990000000     0.759110000000     0.0300377  
H81      H      0.581580000000     0.185640000000     0.751300000000     0.116296   
H82      H      0.551360000000     0.665090000000     0.652120000000     0.10993    
H83      H      0.464420000000     0.100330000000     0.705220000000     0.0230263  
H84      H      0.464680000000     0.675120000000     0.724720000000     0.0303668  
H85      H      0.496760000000     0.778590000000     0.496270000000     0.120134   
H86      H      0.543280000000     0.328640000000     0.894730000000     0.109747   
H87      H      0.615150000000     0.884720000000     0.958250000000     0.0246614  
H88      H      0.620450000000     0.811680000000     0.971430000000     0.0279489  
H89      H      0.488720000000     0.969500000000     0.054940000000     0.11475    
H90      H      0.483810000000     0.088080000000     0.072410000000     0.111563   
H91      H      0.578820000000     0.099820000000     0.604740000000     0.0231795  
H92      H      0.597930000000     0.083650000000     0.544390000000     0.0308433  
H93      H      0.493480000000     0.900320000000     0.881930000000     0.107014   
H94      H      0.472290000000     0.884170000000     0.786540000000     0.114173   
H95      H      0.581530000000     0.010470000000     0.810230000000     0.0339792  
H96      H      0.592080000000     0.945130000000     0.834120000000     0.0254697  
H97      H      0.249730000000     0.592170000000     0.051250000000     0.110281   
H98      H      0.830780000000     0.637080000000     0.996660000000     0.108955   
H99      H      0.823150000000     0.527670000000     0.047710000000     0.0309781  
H100     H      0.266740000000     0.488850000000     0.508700000000     0.0334154  
H101     H      0.806710000000     0.398480000000     0.306430000000     0.109357   
H102     H      0.241630000000     0.367790000000     0.243840000000     0.111196   
H103     H      0.741070000000     0.470350000000     0.301900000000     0.0303171  
H104     H      0.805370000000     0.512190000000     0.260200000000     0.0308941  
H105     H      0.081860000000     0.684440000000     0.251390000000     0.116367   
H106     H      0.051430000000     0.164090000000     0.151800000000     0.109495   
H107     H      0.965330000000     0.600390000000     0.204970000000     0.0231891  
H108     H      0.963420000000     0.172570000000     0.223620000000     0.0301962  
H109     H      0.997280000000     0.277100000000     0.996880000000     0.124118   
H110     H      0.042610000000     0.827910000000     0.394680000000     0.108567   
H111     H      0.114450000000     0.386330000000     0.457790000000     0.0245518  
H112     H      0.121200000000     0.314120000000     0.470560000000     0.0283727  
H113     H      0.989440000000     0.469790000000     0.554270000000     0.118216   
H114     H      0.984140000000     0.588190000000     0.572300000000     0.114674   
H115     H      0.078000000000     0.598190000000     0.104700000000     0.0229377  
H116     H      0.097060000000     0.581510000000     0.043930000000     0.0310365  
H117     H      0.993790000000     0.399980000000     0.382230000000     0.110308   
H118     H      0.972640000000     0.383020000000     0.287070000000     0.117445   
H119     H      0.081560000000     0.509930000000     0.310260000000     0.0340477  
H120     H      0.092570000000     0.445050000000     0.334430000000     0.0251379  
H121     H      0.250690000000     0.593200000000     0.551850000000     0.110148   
H122     H      0.831350000000     0.637970000000     0.496680000000     0.108914   
H123     H      0.825370000000     0.530650000000     0.549240000000     0.030258   
H124     H      0.264960000000     0.488420000000     0.007380000000     0.0334744  
H125     H      0.806680000000     0.398500000000     0.805880000000     0.109342   
H126     H      0.241380000000     0.367790000000     0.743530000000     0.111203   
H127     H      0.741100000000     0.470500000000     0.801580000000     0.0302352  
H128     H      0.805280000000     0.512130000000     0.759740000000     0.0308083  
H129     H      0.081890000000     0.684920000000     0.751450000000     0.116332   
H130     H      0.051530000000     0.164490000000     0.651960000000     0.109439   
H131     H      0.965170000000     0.600980000000     0.705070000000     0.0232519  
H132     H      0.963590000000     0.173340000000     0.723730000000     0.0302658  
H133     H      0.997150000000     0.278480000000     0.496200000000     0.124179   
H134     H      0.042550000000     0.827570000000     0.895430000000     0.108555   
H135     H      0.114400000000     0.385510000000     0.958140000000     0.0246913  
H136     H      0.120560000000     0.312310000000     0.970900000000     0.0284187  
H137     H      0.988810000000     0.468760000000     0.054810000000     0.118341   
H138     H      0.983600000000     0.587220000000     0.072340000000     0.114754   
H139     H      0.078590000000     0.599080000000     0.604850000000     0.0227728  
H140     H      0.098030000000     0.583210000000     0.544520000000     0.0307993  
H141     H      0.993380000000     0.399470000000     0.881810000000     0.110289   
H142     H      0.972300000000     0.383280000000     0.786450000000     0.117459   
H143     H      0.081510000000     0.509670000000     0.810160000000     0.0340025  
H144     H      0.092060000000     0.444340000000     0.834050000000     0.0251265  
H145     H      0.249700000000     0.092790000000     0.051090000000     0.110268   
H146     H      0.830670000000     0.137680000000     0.996420000000     0.108951   
H147     H      0.823120000000     0.028320000000     0.047530000000     0.0310125  
H148     H      0.266750000000     0.989440000000     0.508550000000     0.0334588  
H149     H      0.806720000000     0.899040000000     0.306290000000     0.109437   
H150     H      0.241870000000     0.868490000000     0.243550000000     0.1112     
H151     H      0.741090000000     0.970900000000     0.301700000000     0.0303868  
H152     H      0.805480000000     0.012830000000     0.260090000000     0.030847   
H153     H      0.081770000000     0.185100000000     0.251180000000     0.116208   
H154     H      0.051570000000     0.664640000000     0.151820000000     0.109368   
H155     H      0.964910000000     0.099650000000     0.204980000000     0.0230375  
H156     H      0.964660000000     0.674190000000     0.224370000000     0.0304502  
H157     H      0.997220000000     0.777020000000     0.996910000000     0.123884   
H158     H      0.043600000000     0.328900000000     0.393870000000     0.108506   
H159     H      0.115340000000     0.885530000000     0.457730000000     0.0246441  
H160     H      0.121250000000     0.813500000000     0.470910000000     0.0280802  
H161     H      0.989330000000     0.970210000000     0.554200000000     0.118156   
H162     H      0.984180000000     0.088640000000     0.572220000000     0.114808   
H163     H      0.078230000000     0.098680000000     0.104410000000     0.022974   
H164     H      0.096950000000     0.081780000000     0.043620000000     0.0310444  
H165     H      0.994060000000     0.900750000000     0.382160000000     0.110256   
H166     H      0.972790000000     0.883720000000     0.287030000000     0.11741    
H167     H      0.081670000000     0.010680000000     0.310130000000     0.0339914  
H168     H      0.092790000000     0.945870000000     0.334310000000     0.0253523  
H169     H      0.250650000000     0.093780000000     0.551690000000     0.11012    
H170     H      0.831270000000     0.138560000000     0.496470000000     0.10892    
H171     H      0.825360000000     0.031270000000     0.549080000000     0.0302962  
H172     H      0.264970000000     0.989030000000     0.007220000000     0.0335237  
H173     H      0.806730000000     0.899070000000     0.805740000000     0.109395   
H174     H      0.241610000000     0.868470000000     0.743260000000     0.111211   
H175     H      0.741130000000     0.971060000000     0.801380000000     0.030321   
H176     H      0.805390000000     0.012760000000     0.759610000000     0.0307598  
H177     H      0.081800000000     0.185640000000     0.751240000000     0.116183   
H178     H      0.051670000000     0.665040000000     0.652000000000     0.10943    
H179     H      0.964750000000     0.100240000000     0.705080000000     0.0231024  
H180     H      0.964840000000     0.674960000000     0.724500000000     0.0305329  
H181     H      0.997030000000     0.778620000000     0.496190000000     0.123892   
H182     H      0.043450000000     0.328580000000     0.894620000000     0.108502   
H183     H      0.115360000000     0.884640000000     0.958110000000     0.0248132  
H184     H      0.120620000000     0.811570000000     0.971270000000     0.0280946  
H185     H      0.988720000000     0.969190000000     0.054730000000     0.118267   
H186     H      0.983620000000     0.087650000000     0.072260000000     0.114958   
H187     H      0.078810000000     0.099570000000     0.604580000000     0.0227881  
H188     H      0.097930000000     0.083460000000     0.544210000000     0.0308332  
H189     H      0.993690000000     0.900310000000     0.881760000000     0.110217   
H190     H      0.972470000000     0.884000000000     0.786430000000     0.117411   
H191     H      0.081610000000     0.010470000000     0.810010000000     0.0339448  
H192     H      0.092330000000     0.945260000000     0.833940000000     0.0253488  
N1       N      0.326700000000     0.591540000000     0.490710000000    -0.247157   
N2       N      0.751830000000     0.549270000000     0.057470000000    -0.252035   
N3       N      0.740380000000     0.412040000000     0.241750000000    -0.248986   
N4       N      0.310320000000     0.445120000000     0.310690000000    -0.250101   
N5       N      0.533290000000     0.188840000000     0.171940000000    -0.250975   
N6       N      0.533930000000     0.660170000000     0.256430000000    -0.249412   
N7       N      0.554690000000     0.799700000000     0.417010000000    -0.252474   
N8       N      0.543720000000     0.311940000000     0.003100000000    -0.250302   
N9       N      0.516970000000     0.589990000000     0.547840000000    -0.246223   
N10      N      0.524140000000     0.498600000000     0.079990000000    -0.250051   
N11      N      0.520350000000     0.412780000000     0.282750000000    -0.247581   
N12      N      0.517160000000     0.447710000000     0.366670000000    -0.246308   
N13      N      0.326220000000     0.590790000000     0.990640000000    -0.247249   
N14      N      0.752590000000     0.550040000000     0.557920000000    -0.251959   
N15      N      0.740100000000     0.411970000000     0.741460000000    -0.249189   
N16      N      0.310190000000     0.445110000000     0.810320000000    -0.25015    
N17      N      0.533110000000     0.189170000000     0.671950000000    -0.250943   
N18      N      0.533840000000     0.660540000000     0.756470000000    -0.24938    
N19      N      0.554620000000     0.799190000000     0.917570000000    -0.252291   
N20      N      0.543680000000     0.312520000000     0.502600000000    -0.250581   
N21      N      0.516200000000     0.588600000000     0.047770000000    -0.246079   
N22      N      0.524450000000     0.499330000000     0.579700000000    -0.250136   
N23      N      0.519960000000     0.412790000000     0.782260000000    -0.247475   
N24      N      0.516720000000     0.447230000000     0.866330000000    -0.246349   
N25      N      0.326670000000     0.092130000000     0.490540000000    -0.24708    
N26      N      0.751780000000     0.049870000000     0.057280000000    -0.252098   
N27      N      0.740550000000     0.912710000000     0.241510000000    -0.249021   
N28      N      0.310330000000     0.945660000000     0.310560000000    -0.250153   
N29      N      0.534210000000     0.689790000000     0.172470000000    -0.250816   
N30      N      0.533830000000     0.160540000000     0.256270000000    -0.249487   
N31      N      0.554370000000     0.300240000000     0.416940000000    -0.252466   
N32      N      0.543630000000     0.812000000000     0.003110000000    -0.250585   
N33      N      0.517000000000     0.090470000000     0.547720000000    -0.246229   
N34      N      0.524090000000     0.999050000000     0.079880000000    -0.250045   
N35      N      0.520500000000     0.913480000000     0.282690000000    -0.247547   
N36      N      0.517360000000     0.948470000000     0.366590000000    -0.24623    
N37      N      0.326170000000     0.091400000000     0.990450000000    -0.247288   
N38      N      0.752540000000     0.050610000000     0.557730000000    -0.252056   
N39      N      0.740260000000     0.912630000000     0.741230000000    -0.249202   
N40      N      0.310220000000     0.945660000000     0.810180000000    -0.250172   
N41      N      0.534040000000     0.690120000000     0.672490000000    -0.250787   
N42      N      0.533740000000     0.160950000000     0.756320000000    -0.249487   
N43      N      0.554240000000     0.299760000000     0.917490000000    -0.252274   
N44      N      0.543570000000     0.812660000000     0.502610000000    -0.250835   
N45      N      0.516220000000     0.089100000000     0.047650000000    -0.246167   
N46      N      0.524400000000     0.999780000000     0.579590000000    -0.250116   
N47      N      0.520130000000     0.913520000000     0.782210000000    -0.247543   
N48      N      0.516950000000     0.948060000000     0.866240000000    -0.246271   
N49      N      0.826030000000     0.590980000000     0.490210000000    -0.247259   
N50      N      0.252570000000     0.549490000000     0.057850000000    -0.252043   
N51      N      0.240560000000     0.412120000000     0.241670000000    -0.249195   
N52      N      0.810220000000     0.445010000000     0.310600000000    -0.249931   
N53      N      0.033430000000     0.188690000000     0.171820000000    -0.253332   
N54      N      0.034010000000     0.660120000000     0.256330000000    -0.250788   
N55      N      0.054830000000     0.799630000000     0.416900000000    -0.251695   
N56      N      0.043960000000     0.311910000000     0.002990000000    -0.252673   
N57      N      0.016930000000     0.589720000000     0.547710000000    -0.247852   
N58      N      0.024130000000     0.498320000000     0.079790000000    -0.252641   
N59      N      0.020440000000     0.412680000000     0.282600000000    -0.250146   
N60      N      0.017280000000     0.447680000000     0.366500000000    -0.248147   
N61      N      0.825320000000     0.590090000000     0.989930000000    -0.247427   
N62      N      0.253130000000     0.550210000000     0.558100000000    -0.252019   
N63      N      0.240380000000     0.412150000000     0.741360000000    -0.249328   
N64      N      0.810150000000     0.445000000000     0.810130000000    -0.249953   
N65      N      0.033410000000     0.189110000000     0.671830000000    -0.253218   
N66      N      0.034040000000     0.660540000000     0.756370000000    -0.250827   
N67      N      0.054750000000     0.799110000000     0.917460000000    -0.251554   
N68      N      0.043970000000     0.312510000000     0.502500000000    -0.253059   
N69      N      0.016060000000     0.588270000000     0.047620000000    -0.247809   
N70      N      0.024500000000     0.499090000000     0.579510000000    -0.252816   
N71      N      0.020140000000     0.412720000000     0.782120000000    -0.250076   
N72      N      0.016900000000     0.447220000000     0.866150000000    -0.24811    
N73      N      0.825990000000     0.091580000000     0.490030000000    -0.247161   
N74      N      0.252520000000     0.050090000000     0.057660000000    -0.252066   
N75      N      0.240720000000     0.912790000000     0.241440000000    -0.249108   
N76      N      0.810240000000     0.945560000000     0.310460000000    -0.249948   
N77      N      0.034340000000     0.689630000000     0.172350000000    -0.253112   
N78      N      0.033920000000     0.160490000000     0.256180000000    -0.250886   
N79      N      0.054520000000     0.300170000000     0.416830000000    -0.251686   
N80      N      0.043860000000     0.811970000000     0.003000000000    -0.252972   
N81      N      0.016960000000     0.090200000000     0.547590000000    -0.247831   
N82      N      0.024080000000     0.998770000000     0.079680000000    -0.252594   
N83      N      0.020590000000     0.913380000000     0.282540000000    -0.250124   
N84      N      0.017470000000     0.948440000000     0.366410000000    -0.248125   
N85      N      0.825270000000     0.090700000000     0.989730000000    -0.247398   
N86      N      0.253090000000     0.050780000000     0.557920000000    -0.252034   
N87      N      0.240540000000     0.912810000000     0.741130000000    -0.249358   
N88      N      0.810190000000     0.945560000000     0.810000000000    -0.250036   
N89      N      0.034320000000     0.690040000000     0.672360000000    -0.253055   
N90      N      0.033950000000     0.160950000000     0.756220000000    -0.250913   
N91      N      0.054370000000     0.299680000000     0.917380000000    -0.251586   
N92      N      0.043840000000     0.812650000000     0.502500000000    -0.25321    
N93      N      0.016080000000     0.088770000000     0.047510000000    -0.247769   
N94      N      0.024440000000     0.999530000000     0.579400000000    -0.252765   
N95      N      0.020310000000     0.913450000000     0.782070000000    -0.250024   
N96      N      0.017140000000     0.948050000000     0.866070000000    -0.248055   
O1       O      0.540370000000     0.595060000000     0.465040000000    -0.48759    
O2       O      0.454050000000     0.611510000000     0.310250000000    -0.508162   
O3       O      0.445010000000     0.552520000000     0.487920000000    -0.511949   
O4       O      0.468550000000     0.481340000000     0.420430000000    -0.500686   
O5       O      0.542670000000     0.696930000000     0.431800000000    -0.497462   
O6       O      0.354460000000     0.543170000000     0.352500000000    -0.506788   
O7       O      0.459070000000     0.586110000000     0.399290000000    -0.873385   
O8       O      0.394280000000     0.633700000000     0.426370000000    -0.50262    
O9       O      0.352380000000     0.528220000000     0.443950000000    -0.501496   
O10      O      0.534800000000     0.554020000000     0.369160000000    -0.500915   
O11      O      0.382040000000     0.471030000000     0.370430000000    -0.507866   
O12      O      0.486840000000     0.707970000000     0.375450000000    -0.513852   
O13      O      0.548350000000     0.658740000000     0.338630000000    -0.499673   
O14      O      0.510040000000     0.376680000000     0.203340000000    -0.509141   
O15      O      0.617890000000     0.374420000000     0.058540000000    -0.515965   
O16      O      0.602010000000     0.445250000000     0.230930000000    -0.510631   
O17      O      0.580480000000     0.495880000000     0.146040000000    -0.494458   
O18      O      0.532530000000     0.285920000000     0.182490000000    -0.497997   
O19      O      0.714740000000     0.452990000000     0.102280000000    -0.512698   
O20      O      0.603750000000     0.398980000000     0.145520000000    -0.871481   
O21      O      0.677360000000     0.366930000000     0.177180000000    -0.52029    
O22      O      0.701450000000     0.468130000000     0.199050000000    -0.487086   
O23      O      0.515970000000     0.403970000000     0.107190000000    -0.522947   
O24      O      0.675960000000     0.515670000000     0.113730000000    -0.520289   
O25      O      0.593220000000     0.281800000000     0.127480000000    -0.502796   
O26      O      0.523920000000     0.309300000000     0.084830000000    -0.498956   
O27      O      0.539880000000     0.594190000000     0.964940000000    -0.487246   
O28      O      0.453930000000     0.611590000000     0.810230000000    -0.508282   
O29      O      0.444500000000     0.551840000000     0.987720000000    -0.511877   
O30      O      0.468120000000     0.480810000000     0.920150000000    -0.500572   
O31      O      0.542420000000     0.696270000000     0.931950000000    -0.497911   
O32      O      0.354290000000     0.543050000000     0.852300000000    -0.506571   
O33      O      0.458770000000     0.585710000000     0.899180000000    -0.873517   
O34      O      0.394020000000     0.633270000000     0.926440000000    -0.502677   
O35      O      0.351950000000     0.527680000000     0.943680000000    -0.501667   
O36      O      0.534400000000     0.553550000000     0.868940000000    -0.501045   
O37      O      0.381790000000     0.470790000000     0.870090000000    -0.508057   
O38      O      0.486690000000     0.707730000000     0.875730000000    -0.513685   
O39      O      0.548180000000     0.658530000000     0.838660000000    -0.499496   
O40      O      0.509790000000     0.377110000000     0.702730000000    -0.508943   
O41      O      0.617850000000     0.374550000000     0.558190000000    -0.516158   
O42      O      0.601750000000     0.445110000000     0.730600000000    -0.510479   
O43      O      0.580410000000     0.496100000000     0.645830000000    -0.494475   
O44      O      0.532110000000     0.286170000000     0.682050000000    -0.497914   
O45      O      0.714610000000     0.453070000000     0.602020000000    -0.512465   
O46      O      0.603600000000     0.399150000000     0.645120000000    -0.871309   
O47      O      0.677040000000     0.366930000000     0.676900000000    -0.520582   
O48      O      0.701260000000     0.468150000000     0.698770000000    -0.487408   
O49      O      0.516130000000     0.404490000000     0.606560000000    -0.522862   
O50      O      0.675970000000     0.515900000000     0.613550000000    -0.520078   
O51      O      0.592900000000     0.281900000000     0.627200000000    -0.502567   
O52      O      0.523800000000     0.309570000000     0.584340000000    -0.499066   
O53      O      0.540390000000     0.095720000000     0.464920000000    -0.487466   
O54      O      0.454020000000     0.111910000000     0.310140000000    -0.508323   
O55      O      0.445020000000     0.053100000000     0.487810000000    -0.511844   
O56      O      0.468600000000     0.981980000000     0.420290000000    -0.500532   
O57      O      0.542470000000     0.197510000000     0.431740000000    -0.497182   
O58      O      0.354420000000     0.043690000000     0.352390000000    -0.506928   
O59      O      0.459050000000     0.086680000000     0.399170000000    -0.873713   
O60      O      0.394240000000     0.134280000000     0.426180000000    -0.502541   
O61      O      0.352400000000     0.028810000000     0.443840000000    -0.501446   
O62      O      0.534890000000     0.054740000000     0.369060000000    -0.500656   
O63      O      0.382040000000     0.971590000000     0.370320000000    -0.507841   
O64      O      0.486810000000     0.208520000000     0.375220000000    -0.513618   
O65      O      0.548320000000     0.159440000000     0.338510000000    -0.499472   
O66      O      0.510120000000     0.877280000000     0.203300000000    -0.509251   
O67      O      0.617760000000     0.874920000000     0.058430000000    -0.516275   
O68      O      0.602110000000     0.945890000000     0.230820000000    -0.510698   
O69      O      0.580480000000     0.996410000000     0.145920000000    -0.494533   
O70      O      0.532700000000     0.786550000000     0.182500000000    -0.497959   
O71      O      0.714700000000     0.953570000000     0.102050000000    -0.512816   
O72      O      0.603780000000     0.899560000000     0.145410000000    -0.871305   
O73      O      0.677490000000     0.867600000000     0.176970000000    -0.520338   
O74      O      0.701510000000     0.968760000000     0.198890000000    -0.48701    
O75      O      0.515910000000     0.904440000000     0.107150000000    -0.522891   
O76      O      0.675940000000     0.016250000000     0.113570000000    -0.520234   
O77      O      0.593280000000     0.782390000000     0.127400000000    -0.502945   
O78      O      0.523860000000     0.809760000000     0.084810000000    -0.498986   
O79      O      0.539910000000     0.094910000000     0.964830000000    -0.487269   
O80      O      0.453890000000     0.112010000000     0.810110000000    -0.508374   
O81      O      0.444530000000     0.052460000000     0.987610000000    -0.51196    
O82      O      0.468210000000     0.981510000000     0.920010000000    -0.500521   
O83      O      0.542210000000     0.196900000000     0.931880000000    -0.497588   
O84      O      0.354250000000     0.043570000000     0.852180000000    -0.506717   
O85      O      0.458750000000     0.086320000000     0.899060000000    -0.873611   
O86      O      0.393960000000     0.133860000000     0.926250000000    -0.502548   
O87      O      0.351970000000     0.028290000000     0.943560000000    -0.50153    
O88      O      0.534510000000     0.054340000000     0.868840000000    -0.500849   
O89      O      0.381800000000     0.971370000000     0.869980000000    -0.50814    
O90      O      0.486640000000     0.208310000000     0.875490000000    -0.513515   
O91      O      0.548150000000     0.159280000000     0.838540000000    -0.499263   
O92      O      0.509880000000     0.877700000000     0.702720000000    -0.508982   
O93      O      0.617730000000     0.875030000000     0.558080000000    -0.51628    
O94      O      0.601870000000     0.945760000000     0.730490000000    -0.510487   
O95      O      0.580410000000     0.996630000000     0.645710000000    -0.494441   
O96      O      0.532270000000     0.786790000000     0.682060000000    -0.498146   
O97      O      0.714570000000     0.953630000000     0.601790000000    -0.512613   
O98      O      0.603630000000     0.899720000000     0.645020000000    -0.871279   
O99      O      0.677170000000     0.867570000000     0.676710000000    -0.520679   
O100     O      0.701340000000     0.968760000000     0.698610000000    -0.487478   
O101     O      0.516060000000     0.904950000000     0.606540000000    -0.522633   
O102     O      0.675960000000     0.016470000000     0.613390000000    -0.520105   
O103     O      0.592950000000     0.782480000000     0.627130000000    -0.502764   
O104     O      0.523740000000     0.810040000000     0.584340000000    -0.499106   
O105     O      0.040390000000     0.594930000000     0.464910000000    -0.486501   
O106     O      0.954120000000     0.611500000000     0.310150000000    -0.504076   
O107     O      0.945010000000     0.552310000000     0.487770000000    -0.507657   
O108     O      0.968620000000     0.481250000000     0.420250000000    -0.496296   
O109     O      0.042690000000     0.696820000000     0.431730000000    -0.496213   
O110     O      0.854500000000     0.543090000000     0.352370000000    -0.506753   
O111     O      0.959100000000     0.586020000000     0.399170000000    -0.870061   
O112     O      0.894200000000     0.633510000000     0.426260000000    -0.501769   
O113     O      0.852410000000     0.528010000000     0.443800000000    -0.501636   
O114     O      0.034860000000     0.553970000000     0.369020000000    -0.49992    
O115     O      0.882130000000     0.470970000000     0.370200000000    -0.507037   
O116     O      0.986840000000     0.707880000000     0.375410000000    -0.508588   
O117     O      0.048400000000     0.658720000000     0.338540000000    -0.498635   
O118     O      0.010130000000     0.376470000000     0.203220000000    -0.510388   
O119     O      0.118150000000     0.374310000000     0.058470000000    -0.515594   
O120     O      0.102090000000     0.445260000000     0.230750000000    -0.510786   
O121     O      0.080530000000     0.495720000000     0.145820000000    -0.495071   
O122     O      0.032670000000     0.285760000000     0.182370000000    -0.499033   
O123     O      0.215000000000     0.452910000000     0.102370000000    -0.512427   
O124     O      0.103840000000     0.398830000000     0.145410000000    -0.871155   
O125     O      0.177400000000     0.366830000000     0.177210000000    -0.52036    
O126     O      0.201510000000     0.468070000000     0.198940000000    -0.48702    
O127     O      0.016020000000     0.403750000000     0.107050000000    -0.524169   
O128     O      0.175960000000     0.515410000000     0.113470000000    -0.519811   
O129     O      0.093400000000     0.281670000000     0.127390000000    -0.502953   
O130     O      0.024130000000     0.309190000000     0.084700000000    -0.499973   
O131     O      0.039860000000     0.594030000000     0.964820000000    -0.48611    
O132     O      0.954080000000     0.611610000000     0.810090000000    -0.504131   
O133     O      0.944440000000     0.551580000000     0.987520000000    -0.507522   
O134     O      0.968220000000     0.480710000000     0.919940000000    -0.496127   
O135     O      0.042440000000     0.696140000000     0.931870000000    -0.496731   
O136     O      0.854390000000     0.542970000000     0.852070000000    -0.506456   
O137     O      0.958830000000     0.585620000000     0.899020000000    -0.870225   
O138     O      0.893930000000     0.633030000000     0.926280000000    -0.501736   
O139     O      0.851940000000     0.527410000000     0.943410000000    -0.50174    
O140     O      0.034520000000     0.553520000000     0.868780000000    -0.499734   
O141     O      0.881940000000     0.470730000000     0.869780000000    -0.507193   
O142     O      0.986720000000     0.707650000000     0.875670000000    -0.508346   
O143     O      0.048300000000     0.658520000000     0.838570000000    -0.498339   
O144     O      0.009970000000     0.376940000000     0.702620000000    -0.510201   
O145     O      0.118170000000     0.374500000000     0.558090000000    -0.515684   
O146     O      0.101910000000     0.445160000000     0.730430000000    -0.510602   
O147     O      0.080490000000     0.495960000000     0.645630000000    -0.495052   
O148     O      0.032360000000     0.286070000000     0.681930000000    -0.499036   
O149     O      0.214930000000     0.453100000000     0.602060000000    -0.51226    
O150     O      0.103780000000     0.399070000000     0.645010000000    -0.871171   
O151     O      0.177230000000     0.366930000000     0.676890000000    -0.520778   
O152     O      0.201420000000     0.468180000000     0.698640000000    -0.487405   
O153     O      0.016240000000     0.404290000000     0.606430000000    -0.523969   
O154     O      0.176010000000     0.515710000000     0.613290000000    -0.519826   
O155     O      0.093200000000     0.281860000000     0.627100000000    -0.502674   
O156     O      0.024100000000     0.309500000000     0.584220000000    -0.500194   
O157     O      0.040410000000     0.095590000000     0.464790000000    -0.486502   
O158     O      0.954090000000     0.111910000000     0.310030000000    -0.50403    
O159     O      0.945020000000     0.052900000000     0.487660000000    -0.507441   
O160     O      0.968680000000     0.981890000000     0.420100000000    -0.496219   
O161     O      0.042490000000     0.197400000000     0.431660000000    -0.496003   
O162     O      0.854460000000     0.043610000000     0.352260000000    -0.506875   
O163     O      0.959090000000     0.086600000000     0.399050000000    -0.870198   
O164     O      0.894160000000     0.134090000000     0.426080000000    -0.501626   
O165     O      0.852430000000     0.028600000000     0.443690000000    -0.501532   
O166     O      0.034960000000     0.054700000000     0.368920000000    -0.499781   
O167     O      0.882140000000     0.971530000000     0.370090000000    -0.506875   
O168     O      0.986820000000     0.208440000000     0.375170000000    -0.508174   
O169     O      0.048380000000     0.159420000000     0.338430000000    -0.498389   
O170     O      0.010210000000     0.877060000000     0.203190000000    -0.510501   
O171     O      0.118020000000     0.874800000000     0.058350000000    -0.515709   
O172     O      0.102190000000     0.945900000000     0.230650000000    -0.510815   
O173     O      0.080520000000     0.996250000000     0.145700000000    -0.494999   
O174     O      0.032840000000     0.786390000000     0.182380000000    -0.49911    
O175     O      0.214950000000     0.953480000000     0.102140000000    -0.512625   
O176     O      0.103870000000     0.899410000000     0.145300000000    -0.871171   
O177     O      0.177530000000     0.867480000000     0.177000000000    -0.520396   
O178     O      0.201580000000     0.968700000000     0.198770000000    -0.487079   
O179     O      0.015960000000     0.904210000000     0.107020000000    -0.524125   
O180     O      0.175940000000     0.015980000000     0.113320000000    -0.519941   
O181     O      0.093440000000     0.782250000000     0.127310000000    -0.503072   
O182     O      0.024070000000     0.809650000000     0.084690000000    -0.50006    
O183     O      0.039890000000     0.094760000000     0.964700000000    -0.486261   
O184     O      0.954050000000     0.112040000000     0.809970000000    -0.504204   
O185     O      0.944460000000     0.052210000000     0.987410000000    -0.507465   
O186     O      0.968300000000     0.981410000000     0.919800000000    -0.496169   
O187     O      0.042230000000     0.196780000000     0.931800000000    -0.496348   
O188     O      0.854350000000     0.043500000000     0.851960000000    -0.506658   
O189     O      0.958810000000     0.086230000000     0.898900000000    -0.870309   
O190     O      0.893880000000     0.133630000000     0.926080000000    -0.501633   
O191     O      0.851980000000     0.028030000000     0.943300000000    -0.501787   
O192     O      0.034630000000     0.054300000000     0.868690000000    -0.499656   
O193     O      0.881960000000     0.971320000000     0.869670000000    -0.507141   
O194     O      0.986670000000     0.208230000000     0.875420000000    -0.50802    
O195     O      0.048280000000     0.159270000000     0.838460000000    -0.498119   
O196     O      0.010060000000     0.877520000000     0.702610000000    -0.510333   
O197     O      0.118050000000     0.874970000000     0.557990000000    -0.515978   
O198     O      0.102030000000     0.945810000000     0.730320000000    -0.510751   
O199     O      0.080500000000     0.996500000000     0.645510000000    -0.494929   
O200     O      0.032520000000     0.786690000000     0.681950000000    -0.499034   
O201     O      0.214890000000     0.953650000000     0.601840000000    -0.512303   
O202     O      0.103810000000     0.899630000000     0.644910000000    -0.871254   
O203     O      0.177350000000     0.867570000000     0.676700000000    -0.5207     
O204     O      0.201490000000     0.968790000000     0.698480000000    -0.487481   
O205     O      0.016170000000     0.904750000000     0.606420000000    -0.523779   
O206     O      0.175990000000     0.016270000000     0.613130000000    -0.519843   
O207     O      0.093240000000     0.782430000000     0.627020000000    -0.502785   
O208     O      0.024020000000     0.809970000000     0.584220000000    -0.500287   


