data_structure

_audit_creation_method RASPA-1.0
_audit_creation_date 2023-5-19
_audit_author_name 'Poobodin Mano'

_cell_length_a    27.5206
_cell_length_b    27.0649
_cell_length_c    26.8695
_cell_angle_alpha 90
_cell_angle_beta  90
_cell_angle_gamma 90
_cell_volume      20013.5

_symmetry_cell_setting          triclinic
_symmetry_space_group_name_Hall 'P 1'
_symmetry_space_group_name_H-M  'P 1'
_symmetry_Int_Tables_number     1

_symmetry_equiv_pos_as_xyz 'x,y,z'

loop_
_atom_site_label
_atom_site_type_symbol
_atom_site_fract_x
_atom_site_fract_y
_atom_site_fract_z
_atom_site_charge
C1       C      0.162430000000     0.019810000000     0.109090000000     0.379843   
C2       C      0.997120000000     0.987120000000     0.190470000000     0.377933   
C3       C      0.047240000000     0.164790000000     0.102390000000     0.378904   
C4       C      0.907660000000     0.056210000000     0.041740000000     0.37552    
C5       C      0.037900000000     0.903450000000     0.019780000000     0.377028   
C6       C      0.066490000000     0.070820000000     0.938560000000     0.376767   
C7       C      0.043300000000     0.003580000000     0.450690000000     0.378127   
C8       C      0.207110000000     0.038460000000     0.550100000000     0.374886   
C9       C      0.101210000000     0.183630000000     0.500500000000     0.377253   
C10      C      0.107310000000     0.114440000000     0.692760000000     0.379204   
C11      C      0.054680000000     0.946870000000     0.632120000000     0.378989   
C12      C      0.950100000000     0.108950000000     0.584230000000     0.376453   
C13      C      0.000740000000     0.657190000000     0.006560000000     0.375083   
C14      C      0.058220000000     0.595250000000     0.182540000000     0.38008    
C15      C      0.899490000000     0.520680000000     0.093420000000     0.378368   
C16      C      0.046800000000     0.411740000000     0.123380000000     0.37935    
C17      C      0.160410000000     0.542100000000     0.036880000000     0.379188   
C18      C      0.016400000000     0.479400000000     0.938020000000     0.377599   
C19      C      0.065710000000     0.422840000000     0.567340000000     0.378629   
C20      C      0.056710000000     0.578550000000     0.438370000000     0.379422   
C21      C      0.908930000000     0.530680000000     0.536210000000     0.379463   
C22      C      0.021150000000     0.689960000000     0.587430000000     0.37938    
C23      C      0.168550000000     0.571960000000     0.597790000000     0.374731   
C24      C      0.999210000000     0.543280000000     0.703210000000     0.377187   
C25      C      0.429220000000     0.044250000000     0.102110000000     0.380601   
C26      C      0.588060000000     0.968420000000     0.017340000000     0.378747   
C27      C      0.511520000000     0.119890000000     0.945680000000     0.378382   
C28      C      0.678790000000     0.132160000000     0.053330000000     0.377938   
C29      C      0.586550000000     0.045580000000     0.198010000000     0.380764   
C30      C      0.520830000000     0.213810000000     0.118740000000     0.375408   
C31      C      0.471860000000     0.075940000000     0.536470000000     0.375554   
C32      C      0.613580000000     0.190330000000     0.572650000000     0.378816   
C33      C      0.568390000000     0.064900000000     0.709250000000     0.378505   
C34      C      0.724450000000     0.028890000000     0.622310000000     0.377243   
C35      C      0.653400000000     0.050740000000     0.452070000000     0.379306   
C36      C      0.567170000000     0.924770000000     0.564980000000     0.379074   
C37      C      0.654700000000     0.535170000000     0.075270000000     0.377711   
C38      C      0.495190000000     0.445870000000     0.030320000000     0.376576   
C39      C      0.498930000000     0.576600000000     0.181880000000     0.375842   
C40      C      0.405620000000     0.619830000000     0.024200000000     0.379751   
C41      C      0.555560000000     0.581550000000     0.909310000000     0.380137   
C42      C      0.571610000000     0.707080000000     0.056500000000     0.378427   
C43      C      0.432780000000     0.536500000000     0.571260000000     0.374914   
C44      C      0.591900000000     0.446240000000     0.511650000000     0.377671   
C45      C      0.547160000000     0.610010000000     0.427090000000     0.375767   
C46      C      0.687380000000     0.620710000000     0.546300000000     0.37895    
C47      C      0.598010000000     0.524520000000     0.682500000000     0.37736    
C48      C      0.522850000000     0.686400000000     0.614890000000     0.375439   
C49      C      0.583950000000     0.480350000000     0.762380000000     0.0144632  
C50      C      0.556100000000     0.515690000000     0.797110000000    -0.103464   
C51      C      0.590050000000     0.545640000000     0.831250000000     0.017904   
C52      C      0.501370000000     0.646580000000     0.355290000000     0.0149871  
C53      C      0.478490000000     0.613130000000     0.315320000000    -0.106078   
C54      C      0.510730000000     0.606340000000     0.268800000000     0.0162787  
C55      C      0.486550000000     0.770170000000     0.613990000000     0.0168651  
C56      C      0.528300000000     0.801890000000     0.594220000000    -0.106792   
C57      C      0.511820000000     0.852020000000     0.574220000000     0.0162495  
C58      C      0.574590000000     0.356120000000     0.504100000000     0.018065   
C59      C      0.607190000000     0.322940000000     0.535860000000    -0.107979   
C60      C      0.585340000000     0.271140000000     0.540960000000     0.0158147  
C61      C      0.564430000000     0.793290000000     0.028390000000     0.0153814  
C62      C      0.593680000000     0.841510000000     0.030070000000    -0.108551   
C63      C      0.568390000000     0.880920000000     0.998440000000     0.0192833  
C64      C      0.458790000000     0.366150000000     0.058560000000     0.0141799  
C65      C      0.495490000000     0.329590000000     0.080810000000    -0.105187   
C66      C      0.472380000000     0.291870000000     0.115990000000     0.0152296  
C67      C      0.522900000000     0.109670000000     0.854710000000     0.0161476  
C68      C      0.489670000000     0.083850000000     0.816650000000    -0.105074   
C69      C      0.516960000000     0.046530000000     0.783630000000     0.014721   
C70      C      0.660490000000     0.076600000000     0.363530000000     0.0177506  
C71      C      0.634810000000     0.040510000000     0.328400000000    -0.108494   
C72      C      0.619240000000     0.066370000000     0.280420000000     0.0163244  
C73      C      0.831950000000     0.554930000000     0.494510000000     0.0169648  
C74      C      0.798620000000     0.581330000000     0.531550000000    -0.104163   
C75      C      0.768600000000     0.621940000000     0.506370000000     0.0172937  
C76      C      0.344070000000     0.550300000000     0.556300000000     0.0140077  
C77      C      0.301690000000     0.552430000000     0.593620000000    -0.106944   
C78      C      0.254720000000     0.571220000000     0.569200000000     0.013712   
C79      C      0.726490000000     0.483550000000     0.056110000000     0.0151051  
C80      C      0.777390000000     0.473640000000     0.077150000000    -0.106168   
C81      C      0.811490000000     0.518230000000     0.070830000000     0.016692   
C82      C      0.238040000000     0.585180000000     0.050020000000     0.0164577  
C83      C      0.287580000000     0.588020000000     0.024350000000    -0.109059   
C84      C      0.319150000000     0.627160000000     0.049600000000     0.0205817  
C85      C      0.999290000000     0.566870000000     0.793270000000     0.0152182  
C86      C      0.024940000000     0.531650000000     0.829530000000    -0.102842   
C87      C      0.991070000000     0.491350000000     0.850330000000     0.0183683  
C88      C      0.099600000000     0.566050000000     0.358090000000     0.0160958  
C89      C      0.106680000000     0.594360000000     0.308990000000    -0.107736   
C90      C      0.061890000000     0.591840000000     0.274850000000     0.0170518  
C91      C      0.051800000000     0.770150000000     0.618470000000     0.016272   
C92      C      0.033980000000     0.823720000000     0.620730000000    -0.108195   
C93      C      0.070320000000     0.857250000000     0.647440000000     0.017799   
C94      C      0.114850000000     0.349580000000     0.541230000000     0.0160546  
C95      C      0.095960000000     0.299040000000     0.524500000000    -0.107059   
C96      C      0.133490000000     0.269120000000     0.495210000000     0.0172885  
C97      C      0.803850000000     0.055550000000     0.657610000000     0.0155647  
C98      C      0.837250000000     0.072530000000     0.615300000000    -0.104543   
C99      C      0.872370000000     0.113360000000     0.631610000000     0.0155008  
C100     C      0.383520000000     0.080900000000     0.556340000000     0.0140802  
C101     C      0.340410000000     0.055160000000     0.530870000000    -0.106933   
C102     C      0.294100000000     0.059630000000     0.562610000000     0.0138244  
C103     C      0.018870000000     0.836880000000     0.958020000000     0.0157632  
C104     C      0.987880000000     0.791040000000     0.969690000000    -0.106461   
C105     C      0.017790000000     0.745600000000     0.986260000000     0.017066   
C106     C      0.075790000000     0.247880000000     0.078090000000     0.0154459  
C107     C      0.058480000000     0.301570000000     0.083920000000    -0.107774   
C108     C      0.081990000000     0.327020000000     0.128940000000     0.0224138  
C109     C      0.838240000000     0.114730000000     0.046570000000     0.0199469  
C110     C      0.797780000000     0.103990000000     0.084390000000    -0.105414   
C111     C      0.761370000000     0.147130000000     0.088030000000     0.0139602  
C112     C      0.339880000000     0.054830000000     0.107810000000     0.0172694  
C113     C      0.296320000000     0.022940000000     0.122850000000    -0.110237   
C114     C      0.247720000000     0.049070000000     0.114610000000     0.0167832  
C115     C      0.044150000000     0.081870000000     0.849670000000     0.0156604  
C116     C      0.060040000000     0.113640000000     0.804950000000    -0.107452   
C117     C      0.108540000000     0.096120000000     0.782950000000     0.0225676  
C118     C      0.971660000000     0.994470000000     0.279420000000     0.0148609  
C119     C      0.006260000000     0.976460000000     0.320460000000    -0.10712    
C120     C      0.997170000000     0.000630000000     0.371140000000     0.0143313  
H1       H      0.557710000000     0.456450000000     0.742130000000     0.04284    
H2       H      0.607610000000     0.455630000000     0.784840000000     0.0312362  
H3       H      0.546990000000     0.611750000000     0.838990000000     0.105512   
H4       H      0.533820000000     0.541310000000     0.774160000000     0.0642977  
H5       H      0.530890000000     0.493680000000     0.820640000000     0.0598768  
H6       H      0.617520000000     0.565670000000     0.808770000000     0.0344494  
H7       H      0.610060000000     0.520110000000     0.856370000000     0.0435835  
H8       H      0.646090000000     0.523820000000     0.741420000000     0.102675   
H9       H      0.473180000000     0.655420000000     0.383550000000     0.0424805  
H10      H      0.513000000000     0.682100000000     0.338310000000     0.0316516  
H11      H      0.454080000000     0.557820000000     0.240620000000     0.1026     
H12      H      0.470230000000     0.576420000000     0.331890000000     0.0608064  
H13      H      0.443480000000     0.630050000000     0.303610000000     0.0548245  
H14      H      0.544400000000     0.586030000000     0.278760000000     0.0384933  
H15      H      0.520850000000     0.643330000000     0.254020000000     0.0413767  
H16      H      0.572800000000     0.613990000000     0.354990000000     0.104348   
H17      H      0.462170000000     0.758560000000     0.583100000000     0.0413285  
H18      H      0.464660000000     0.791740000000     0.641140000000     0.0293914  
H19      H      0.576300000000     0.858040000000     0.529120000000     0.104834   
H20      H      0.554970000000     0.808410000000     0.624670000000     0.0639594  
H21      H      0.547080000000     0.781080000000     0.564130000000     0.0647129  
H22      H      0.494590000000     0.873520000000     0.604770000000     0.0423127  
H23      H      0.484740000000     0.846700000000     0.544020000000     0.0326152  
H24      H      0.520050000000     0.733180000000     0.675590000000     0.10353    
H25      H      0.540210000000     0.364250000000     0.524280000000     0.0422167  
H26      H      0.564650000000     0.336660000000     0.469090000000     0.0294595  
H27      H      0.633800000000     0.257380000000     0.603110000000     0.104119   
H28      H      0.643650000000     0.319770000000     0.518270000000     0.0613641  
H29      H      0.611580000000     0.339990000000     0.573250000000     0.0634575  
H30      H      0.582890000000     0.254210000000     0.503290000000     0.0425083  
H31      H      0.548140000000     0.273730000000     0.556900000000     0.0352342  
H32      H      0.626540000000     0.398860000000     0.462590000000     0.103609   
H33      H      0.563020000000     0.780150000000     0.989150000000     0.0429246  
H34      H      0.526650000000     0.800410000000     0.041270000000     0.037753   
H35      H      0.625200000000     0.925280000000     0.966170000000     0.10368    
H36      H      0.596540000000     0.854850000000     0.069110000000     0.0656496  
H37      H      0.630870000000     0.834650000000     0.015410000000     0.0612108  
H38      H      0.532190000000     0.889750000000     0.014650000000     0.0414459  
H39      H      0.561730000000     0.866120000000     0.960420000000     0.0287856  
H40      H      0.608410000000     0.765330000000     0.089630000000     0.104518   
H41      H      0.441680000000     0.388360000000     0.088650000000     0.0424893  
H42      H      0.429720000000     0.345510000000     0.038770000000     0.0331936  
H43      H      0.533890000000     0.275310000000     0.162630000000     0.103507   
H44      H      0.513740000000     0.309170000000     0.050100000000     0.0633936  
H45      H      0.523740000000     0.350770000000     0.101350000000     0.061825   
H46      H      0.444100000000     0.270130000000     0.096140000000     0.0433346  
H47      H      0.454420000000     0.311560000000     0.147290000000     0.0308574  
H48      H      0.502050000000     0.379360000000     0.993500000000     0.103636   
H49      H      0.540280000000     0.142400000000     0.837190000000     0.0349753  
H50      H      0.552260000000     0.083650000000     0.865820000000     0.0459367  
H51      H      0.583660000000     0.088940000000     0.780150000000     0.104408   
H52      H      0.460520000000     0.063390000000     0.836590000000     0.0570243  
H53      H      0.471890000000     0.112160000000     0.792830000000     0.0581404  
H54      H      0.490660000000     0.030980000000     0.756400000000     0.0430628  
H55      H      0.530360000000     0.015440000000     0.806920000000     0.0340789  
H56      H      0.461520000000     0.143130000000     0.892710000000     0.102891   
H57      H      0.635830000000     0.107670000000     0.373410000000     0.043189   
H58      H      0.692740000000     0.092670000000     0.344560000000     0.0295876  
H59      H      0.589940000000     0.995230000000     0.256130000000     0.103907   
H60      H      0.659980000000     0.009700000000     0.319100000000     0.0590258  
H61      H      0.602270000000     0.024900000000     0.347250000000     0.0641829  
H62      H      0.651560000000     0.084330000000     0.263260000000     0.0402315  
H63      H      0.591950000000     0.095380000000     0.289330000000     0.0399257  
H64      H      0.706680000000     0.026310000000     0.403520000000     0.103481   
H65      H      0.853980000000     0.582200000000     0.473280000000     0.0437512  
H66      H      0.809430000000     0.534330000000     0.467120000000     0.0328796  
H67      H      0.742950000000     0.668790000000     0.565930000000     0.10505    
H68      H      0.773880000000     0.553600000000     0.548640000000     0.0670741  
H69      H      0.820830000000     0.598190000000     0.561690000000     0.0658579  
H70      H      0.750860000000     0.607640000000     0.472050000000     0.0430996  
H71      H      0.793050000000     0.652630000000     0.495010000000     0.0318817  
H72      H      0.847950000000     0.485850000000     0.531210000000     0.105129   
H73      H      0.354310000000     0.588700000000     0.545950000000     0.0430394  
H74      H      0.332470000000     0.530580000000     0.522010000000     0.0327859  
H75      H      0.226530000000     0.597090000000     0.639750000000     0.102717   
H76      H      0.294680000000     0.514970000000     0.609050000000     0.0596084  
H77      H      0.312100000000     0.577210000000     0.624870000000     0.0594754  
H78      H      0.242910000000     0.543690000000     0.540940000000     0.0434919  
H79      H      0.261840000000     0.606830000000     0.549900000000     0.0332061  
H80      H      0.378160000000     0.490610000000     0.596710000000     0.102669   
H81      H      0.706020000000     0.448130000000     0.055420000000     0.0384163  
H82      H      0.729460000000     0.497460000000     0.017260000000     0.0397191  
H83      H      0.843640000000     0.509210000000     0.143450000000     0.103631   
H84      H      0.773830000000     0.463570000000     0.117140000000     0.0578077  
H85      H      0.793500000000     0.441340000000     0.057630000000     0.0566166  
H86      H      0.792000000000     0.553360000000     0.078500000000     0.0368693  
H87      H      0.824220000000     0.519510000000     0.031570000000     0.0445188  
H88      H      0.716060000000     0.533020000000     0.119420000000     0.103763   
H89      H      0.218680000000     0.620750000000     0.043740000000     0.0428279  
H90      H      0.243100000000     0.580010000000     0.090770000000     0.0345497  
H91      H      0.356100000000     0.668080000000     0.992430000000     0.104338   
H92      H      0.306360000000     0.551700000000     0.026480000000     0.0658836  
H93      H      0.282060000000     0.597660000000     0.984500000000     0.0629444  
H94      H      0.331100000000     0.613920000000     0.086870000000     0.0399372  
H95      H      0.297630000000     0.661430000000     0.055720000000     0.0278866  
H96      H      0.227320000000     0.511460000000     0.020370000000     0.104204   
H97      H      0.025070000000     0.596450000000     0.782020000000     0.0432616  
H98      H      0.968420000000     0.585220000000     0.812520000000     0.0326767  
H99      H      0.039880000000     0.436030000000     0.879160000000     0.103894   
H100     H      0.056290000000     0.513970000000     0.810430000000     0.062684   
H101     H      0.039470000000     0.554020000000     0.860890000000     0.0620174  
H102     H      0.981370000000     0.464980000000     0.820240000000     0.0319404  
H103     H      0.956690000000     0.507900000000     0.864350000000     0.0426714  
H104     H      0.951380000000     0.516140000000     0.755790000000     0.103033   
H105     H      0.135070000000     0.565170000000     0.377920000000     0.0397868  
H106     H      0.088500000000     0.527310000000     0.350340000000     0.0372092  
H107     H      0.092680000000     0.647640000000     0.226290000000     0.103242   
H108     H      0.115580000000     0.633600000000     0.317230000000     0.0572422  
H109     H      0.138210000000     0.577930000000     0.289090000000     0.0571119  
H110     H      0.030700000000     0.611730000000     0.291630000000     0.0344901  
H111     H      0.051440000000     0.552400000000     0.270270000000     0.0459621  
H112     H      0.039690000000     0.616170000000     0.374280000000     0.104186   
H113     H      0.054810000000     0.755300000000     0.656960000000     0.040362   
H114     H      0.088210000000     0.768860000000     0.600550000000     0.0368669  
H115     H      0.022230000000     0.905380000000     0.687640000000     0.10261    
H116     H      0.028260000000     0.838100000000     0.582390000000     0.0632012  
H117     H      0.998540000000     0.824510000000     0.640650000000     0.0598241  
H118     H      0.103600000000     0.861970000000     0.624420000000     0.0425937  
H119     H      0.081490000000     0.840040000000     0.683240000000     0.0290231  
H120     H      0.994070000000     0.757380000000     0.564830000000     0.103843   
H121     H      0.124630000000     0.371750000000     0.507840000000     0.0421733  
H122     H      0.147740000000     0.344890000000     0.564760000000     0.0338729  
H123     H      0.090660000000     0.230650000000     0.440760000000     0.104013   
H124     H      0.084810000000     0.277240000000     0.557700000000     0.064908   
H125     H      0.063230000000     0.304880000000     0.500900000000     0.0633176  
H126     H      0.164300000000     0.258230000000     0.519650000000     0.041648   
H127     H      0.148300000000     0.291860000000     0.464270000000     0.0291468  
H128     H      0.057850000000     0.352800000000     0.596380000000     0.104671   
H129     H      0.784100000000     0.087590000000     0.673820000000     0.0439319  
H130     H      0.826120000000     0.038820000000     0.687730000000     0.0318317  
H131     H      0.888560000000     0.146230000000     0.560470000000     0.104295   
H132     H      0.858520000000     0.040300000000     0.601670000000     0.0639885  
H133     H      0.814650000000     0.086500000000     0.583980000000     0.0646557  
H134     H      0.893740000000     0.101200000000     0.664550000000     0.0427463  
H135     H      0.851280000000     0.146600000000     0.642730000000     0.0321633  
H136     H      0.783890000000     0.982880000000     0.632030000000     0.104586   
H137     H      0.393000000000     0.059850000000     0.590540000000     0.043754   
H138     H      0.372810000000     0.118820000000     0.567890000000     0.0319903  
H139     H      0.264280000000     0.993310000000     0.529300000000     0.103198   
H140     H      0.333530000000     0.072190000000     0.493870000000     0.0597156  
H141     H      0.349730000000     0.015580000000     0.525210000000     0.0600883  
H142     H      0.282750000000     0.099090000000     0.563040000000     0.0436611  
H143     H      0.301920000000     0.048110000000     0.601520000000     0.034063   
H144     H      0.419220000000     0.101690000000     0.487900000000     0.10282    
H145     H      0.994990000000     0.865120000000     0.940580000000     0.0430202  
H146     H      0.047370000000     0.827300000000     0.930360000000     0.0307076  
H147     H      0.954770000000     0.701710000000     0.965960000000     0.102668   
H148     H      0.960780000000     0.800300000000     0.998940000000     0.0636258  
H149     H      0.967540000000     0.781580000000     0.935220000000     0.0531018  
H150     H      0.032240000000     0.751940000000     0.024350000000     0.042351   
H151     H      0.048790000000     0.739930000000     0.960350000000     0.0354849  
H152     H      0.065340000000     0.832470000000     0.022420000000     0.104839   
H153     H      0.115280000000     0.244670000000     0.086310000000     0.0378381  
H154     H      0.070160000000     0.237090000000     0.038530000000     0.0408162  
H155     H      0.032920000000     0.362160000000     0.180360000000     0.103705   
H156     H      0.068260000000     0.322580000000     0.049800000000     0.0666738  
H157     H      0.018170000000     0.302270000000     0.087080000000     0.0639596  
H158     H      0.118730000000     0.340940000000     0.118860000000     0.037728   
H159     H      0.086780000000     0.300100000000     0.159850000000     0.0294458  
H160     H      0.026110000000     0.228850000000     0.138560000000     0.103248   
H161     H      0.865100000000     0.140560000000     0.063340000000     0.0405595  
H162     H      0.823220000000     0.133860000000     0.013390000000     0.0288985  
H163     H      0.739820000000     0.145430000000     0.010670000000     0.103058   
H164     H      0.778010000000     0.069620000000     0.074080000000     0.0658509  
H165     H      0.814700000000     0.097750000000     0.121430000000     0.0615315  
H166     H      0.780710000000     0.183160000000     0.086480000000     0.0317072  
H167     H      0.742920000000     0.145350000000     0.124790000000     0.0437972  
H168     H      0.844250000000     0.049800000000     0.000660000000     0.10435    
H169     H      0.340720000000     0.088920000000     0.130910000000     0.037857   
H170     H      0.336550000000     0.065350000000     0.067920000000     0.0398182  
H171     H      0.214110000000     0.988400000000     0.154840000000     0.10338    
H172     H      0.296780000000     0.988260000000     0.100610000000     0.0608649  
H173     H      0.299780000000     0.013010000000     0.162880000000     0.0566613  
H174     H      0.244890000000     0.060050000000     0.074800000000     0.0427462  
H175     H      0.245670000000     0.082750000000     0.138200000000     0.0351781  
H176     H      0.383260000000     0.992020000000     0.131930000000     0.103562   
H177     H      0.043620000000     0.042150000000     0.839080000000     0.0395525  
H178     H      0.006540000000     0.092820000000     0.860050000000     0.0398988  
H179     H      0.149890000000     0.152000000000     0.744060000000     0.102915   
H180     H      0.031410000000     0.111300000000     0.775870000000     0.0678728  
H181     H      0.063130000000     0.152940000000     0.816580000000     0.0598603  
H182     H      0.106080000000     0.056370000000     0.772590000000     0.0398841  
H183     H      0.137800000000     0.099230000000     0.811210000000     0.0280865  
H184     H      0.107340000000     0.111040000000     0.888790000000     0.102988   
H185     H      0.976470000000     0.034870000000     0.273660000000     0.0430596  
H186     H      0.933410000000     0.987350000000     0.290560000000     0.0327716  
H187     H      0.043680000000     0.943790000000     0.403040000000     0.102771   
H188     H      0.002000000000     0.935780000000     0.324630000000     0.0559709  
H189     H      0.044350000000     0.984020000000     0.308860000000     0.0638785  
H190     H      0.959120000000     0.993720000000     0.383150000000     0.035421   
H191     H      0.002930000000     0.041170000000     0.367600000000     0.0442425  
H192     H      0.985250000000     0.928240000000     0.237460000000     0.103382   
N1       N      0.562350000000     0.582670000000     0.859250000000    -0.210602   
N2       N      0.614010000000     0.508460000000     0.727450000000    -0.209676   
N3       N      0.484750000000     0.578280000000     0.230340000000    -0.209405   
N4       N      0.543510000000     0.622540000000     0.378220000000    -0.209124   
N5       N      0.554280000000     0.877680000000     0.553980000000    -0.210595   
N6       N      0.507410000000     0.727360000000     0.639330000000    -0.210098   
N7       N      0.615260000000     0.240410000000     0.573710000000    -0.210476   
N8       N      0.600480000000     0.401410000000     0.490830000000    -0.210826   
N9       N      0.598360000000     0.925360000000     0.993740000000    -0.211013   
N10      N      0.585930000000     0.754960000000     0.060010000000    -0.20998    
N11      N      0.510550000000     0.259800000000     0.136170000000    -0.209438   
N12      N      0.484300000000     0.397540000000     0.022690000000    -0.209627   
N13      N      0.558480000000     0.069630000000     0.758470000000    -0.209752   
N14      N      0.495150000000     0.126010000000     0.898380000000    -0.210357   
N15      N      0.598120000000     0.031310000000     0.244880000000    -0.211164   
N16      N      0.677010000000     0.050110000000     0.407770000000    -0.211157   
N17      N      0.732220000000     0.641000000000     0.541220000000    -0.210768   
N18      N      0.863130000000     0.519800000000     0.520970000000    -0.210584   
N19      N      0.216680000000     0.579230000000     0.606730000000    -0.208815   
N20      N      0.385450000000     0.523680000000     0.577960000000    -0.209004   
N21      N      0.852100000000     0.514470000000     0.105850000000    -0.210223   
N22      N      0.700010000000     0.519320000000     0.086910000000    -0.210189   
N23      N      0.360770000000     0.639690000000     0.018410000000    -0.212087   
N24      N      0.209290000000     0.543860000000     0.030900000000    -0.210797   
N25      N      0.015870000000     0.464010000000     0.889940000000    -0.210849   
N26      N      0.980760000000     0.539960000000     0.749970000000    -0.209658   
N27      N      0.072810000000     0.614680000000     0.226630000000    -0.210813   
N28      N      0.063100000000     0.589890000000     0.389680000000    -0.210643   
N29      N      0.047300000000     0.904690000000     0.658370000000    -0.211138   
N30      N      0.017970000000     0.739890000000     0.589500000000    -0.210725   
N31      N      0.109480000000     0.225630000000     0.474210000000    -0.21038    
N32      N      0.076970000000     0.374160000000     0.570450000000    -0.210272   
N33      N      0.904150000000     0.126420000000     0.589840000000    -0.210015   
N34      N      0.769970000000     0.018230000000     0.638680000000    -0.209798   
N35      N      0.255010000000     0.028200000000     0.543110000000    -0.208838   
N36      N      0.425200000000     0.084930000000     0.522440000000    -0.209105   
N37      N      0.987360000000     0.701050000000     0.986040000000    -0.209323   
N38      N      0.042100000000     0.856220000000     0.003040000000    -0.209307   
N39      N      0.051680000000     0.367660000000     0.146950000000    -0.212104   
N40      N      0.048120000000     0.214280000000     0.110390000000    -0.21032    
N41      N      0.726230000000     0.144350000000     0.046990000000    -0.209719   
N42      N      0.861540000000     0.069070000000     0.029390000000    -0.210137   
N43      N      0.207900000000     0.015640000000     0.127910000000    -0.211014   
N44      N      0.384880000000     0.026970000000     0.115280000000    -0.21129    
N45      N      0.122470000000     0.125640000000     0.739460000000    -0.212136   
N46      N      0.076330000000     0.089030000000     0.892600000000    -0.209998   
N47      N      0.030540000000     0.979720000000     0.408270000000    -0.20969    
N48      N      0.982250000000     0.966640000000     0.233940000000    -0.209681   
O1       O      0.036110000000     0.032920000000     0.066820000000    -0.370335   
O2       O      0.152340000000     0.054640000000     0.078850000000    -0.307014   
O3       O      0.022300000000     0.960600000000     0.161200000000    -0.309352   
O4       O      0.016110000000     0.138470000000     0.125340000000    -0.305434   
O5       O      0.130580000000     0.988300000000     0.122200000000    -0.30906    
O6       O      0.075960000000     0.145840000000     0.070560000000    -0.307229   
O7       O      0.986150000000     0.031670000000     0.179490000000    -0.301947   
O8       O      0.930750000000     0.026780000000     0.013120000000    -0.303521   
O9       O      0.060850000000     0.915360000000     0.059000000000    -0.307777   
O10      O      0.927710000000     0.075500000000     0.079940000000    -0.303506   
O11      O      0.011630000000     0.934950000000     0.996710000000    -0.301784   
O12      O      0.028420000000     0.044840000000     0.945990000000    -0.302283   
O13      O      0.095060000000     0.082000000000     0.974040000000    -0.307776   
O14      O      0.077020000000     0.066290000000     0.567940000000    -0.368167   
O15      O      0.025680000000     0.046080000000     0.460010000000    -0.305712   
O16      O      0.175690000000     0.005440000000     0.539490000000    -0.303363   
O17      O      0.125100000000     0.174860000000     0.540240000000    -0.304904   
O18      O      0.073260000000     0.982900000000     0.480300000000    -0.305751   
O19      O      0.068740000000     0.153950000000     0.484990000000    -0.30723    
O20      O      0.194380000000     0.080410000000     0.567440000000    -0.303305   
O21      O      0.071480000000     0.085320000000     0.686830000000    -0.310033   
O22      O      0.085080000000     0.947970000000     0.596260000000    -0.304199   
O23      O      0.131150000000     0.131040000000     0.655710000000    -0.306622   
O24      O      0.031450000000     0.985310000000     0.645110000000    -0.310275   
O25      O      0.970740000000     0.085980000000     0.619880000000    -0.307491   
O26      O      0.971710000000     0.115800000000     0.542850000000    -0.306673   
O27      O      0.029730000000     0.534540000000     0.062870000000    -0.368281   
O28      O      0.972630000000     0.620280000000     0.000920000000    -0.307679   
O29      O      0.073090000000     0.615000000000     0.142340000000    -0.306346   
O30      O      0.931230000000     0.517760000000     0.127760000000    -0.30771    
O31      O      0.040550000000     0.653230000000     0.030670000000    -0.301529   
O32      O      0.911580000000     0.529000000000     0.048330000000    -0.305248   
O33      O      0.031480000000     0.556860000000     0.181990000000    -0.307146   
O34      O      0.067540000000     0.419340000000     0.081640000000    -0.306108   
O35      O      0.137470000000     0.580890000000     0.050160000000    -0.306512   
O36      O      0.021420000000     0.445120000000     0.144120000000    -0.30882    
O37      O      0.138720000000     0.501030000000     0.030750000000    -0.307034   
O38      O      0.047840000000     0.461160000000     0.967520000000    -0.30745    
O39      O      0.987130000000     0.513090000000     0.952230000000    -0.307406   
O40      O      0.037320000000     0.555700000000     0.572040000000    -0.369726   
O41      O      0.030070000000     0.438650000000     0.592930000000    -0.30838    
O42      O      0.084420000000     0.547220000000     0.459750000000    -0.304109   
O43      O      0.928040000000     0.571920000000     0.524510000000    -0.307914   
O44      O      0.090490000000     0.451740000000     0.539630000000    -0.30389    
O45      O      0.932190000000     0.499070000000     0.561930000000    -0.306759   
O46      O      0.023020000000     0.600510000000     0.461980000000    -0.309119   
O47      O      0.050360000000     0.666940000000     0.616130000000    -0.304858   
O48      O      0.154990000000     0.550850000000     0.557680000000    -0.303943   
O49      O      0.995570000000     0.667210000000     0.555380000000    -0.308902   
O50      O      0.137670000000     0.587070000000     0.629790000000    -0.303636   
O51      O      0.033180000000     0.573910000000     0.693220000000    -0.303251   
O52      O      0.981180000000     0.515640000000     0.669710000000    -0.308628   
O53      O      0.552270000000     0.088720000000     0.072520000000    -0.369646   
O54      O      0.433570000000     0.087040000000     0.082680000000    -0.303897   
O55      O      0.558850000000     0.968830000000     0.054140000000    -0.306267   
O56      O      0.553530000000     0.101540000000     0.952980000000    -0.308022   
O57      O      0.465900000000     0.016740000000     0.109700000000    -0.309274   
O58      O      0.483840000000     0.131160000000     0.981970000000    -0.305396   
O59      O      0.606430000000     0.008210000000     0.000580000000    -0.307806   
O60      O      0.659200000000     0.135670000000     0.096160000000    -0.306965   
O61      O      0.566990000000     0.014650000000     0.168420000000    -0.306322   
O62      O      0.655030000000     0.115980000000     0.016120000000    -0.307671   
O63      O      0.595200000000     0.089790000000     0.184580000000    -0.309586   
O64      O      0.559010000000     0.192150000000     0.134440000000    -0.305719   
O65      O      0.492360000000     0.192900000000     0.087730000000    -0.303985   
O66      O      0.599210000000     0.055700000000     0.576840000000    -0.372031   
O67      O      0.480550000000     0.054660000000     0.577860000000    -0.30497    
O68      O      0.590180000000     0.168310000000     0.538180000000    -0.305903   
O69      O      0.605250000000     0.087510000000     0.691880000000    -0.307197   
O70      O      0.506360000000     0.089630000000     0.507940000000    -0.304444   
O71      O      0.541040000000     0.038690000000     0.681400000000    -0.305176   
O72      O      0.634800000000     0.166320000000     0.607090000000    -0.307146   
O73      O      0.701290000000     0.996300000000     0.597730000000    -0.306239   
O74      O      0.617730000000     0.080100000000     0.459120000000    -0.305422   
O75      O      0.705770000000     0.071090000000     0.631060000000    -0.305772   
O76      O      0.667820000000     0.021560000000     0.486050000000    -0.30971    
O77      O      0.606980000000     0.941020000000     0.547360000000    -0.308994   
O78      O      0.539550000000     0.952040000000     0.591530000000    -0.304419   
O79      O      0.530510000000     0.577050000000     0.046570000000    -0.366412   
O80      O      0.634500000000     0.567150000000     0.103270000000    -0.305867   
O81      O      0.531580000000     0.463790000000     0.007440000000    -0.309159   
O82      O      0.472390000000     0.553420000000     0.150880000000    -0.305819   
O83      O      0.633300000000     0.518000000000     0.036870000000    -0.305832   
O84      O      0.537490000000     0.598750000000     0.167890000000    -0.301994   
O85      O      0.469470000000     0.472340000000     0.059580000000    -0.302317   
O86      O      0.440920000000     0.640360000000     0.001860000000    -0.30949    
O87      O      0.573250000000     0.546480000000     0.935090000000    -0.306952   
O88      O      0.412040000000     0.582760000000     0.052920000000    -0.304455   
O89      O      0.530940000000     0.615810000000     0.929680000000    -0.307034   
O90      O      0.543220000000     0.694060000000     0.021390000000    -0.306706   
O91      O      0.586100000000     0.676190000000     0.089020000000    -0.304638   
O92      O      0.562250000000     0.570190000000     0.557810000000    -0.37071    
O93      O      0.443780000000     0.575620000000     0.547170000000    -0.302239   
O94      O      0.561460000000     0.450580000000     0.547300000000    -0.304336   
O95      O      0.584230000000     0.585440000000     0.440750000000    -0.307159   
O96      O      0.465550000000     0.508790000000     0.589830000000    -0.305181   
O97      O      0.514300000000     0.622620000000     0.458260000000    -0.302152   
O98      O      0.613900000000     0.483580000000     0.493760000000    -0.308351   
O99      O      0.659570000000     0.636270000000     0.580740000000    -0.307551   
O100     O      0.563780000000     0.501930000000     0.659900000000    -0.303465   
O101     O      0.673870000000     0.586370000000     0.516990000000    -0.308196   
O102     O      0.617750000000     0.562700000000     0.663870000000    -0.309801   
O103     O      0.555520000000     0.659970000000     0.635250000000    -0.308702   
O104     O      0.505310000000     0.675440000000     0.572220000000    -0.303148   
Zn1      Zn     0.089100000000     0.076490000000     0.047950000000     0.457131   
Zn2      Zn     0.061780000000     0.976090000000     0.101040000000     0.461402   
Zn3      Zn     0.993430000000     0.068380000000     0.113060000000     0.448334   
Zn4      Zn     0.002110000000     0.009410000000     0.007420000000     0.447391   
Zn5      Zn     0.036860000000     0.094520000000     0.515470000000     0.454745   
Zn6      Zn     0.102430000000     0.002180000000     0.546640000000     0.45016    
Zn7      Zn     0.129710000000     0.112830000000     0.582670000000     0.449173   
Zn8      Zn     0.037800000000     0.056510000000     0.627420000000     0.455196   
Zn9      Zn     0.976230000000     0.548020000000     0.017580000000     0.451993   
Zn10     Zn     0.068420000000     0.595010000000     0.070180000000     0.450406   
Zn11     Zn     0.003980000000     0.514960000000     0.127260000000     0.458214   
Zn12     Zn     0.069110000000     0.479800000000     0.036780000000     0.451761   
Zn13     Zn     0.996280000000     0.503690000000     0.598010000000     0.45899    
Zn14     Zn     0.089870000000     0.526730000000     0.532360000000     0.448674   
Zn15     Zn     0.996390000000     0.597560000000     0.530920000000     0.459108   
Zn16     Zn     0.064280000000     0.594100000000     0.627180000000     0.448415   
Zn17     Zn     0.492130000000     0.124540000000     0.056590000000     0.44979    
Zn18     Zn     0.537340000000     0.023720000000     0.100080000000     0.455534   
Zn19     Zn     0.591190000000     0.079970000000     0.012790000000     0.45569    
Zn20     Zn     0.590240000000     0.126040000000     0.120330000000     0.455304   
Zn21     Zn     0.541930000000     0.025700000000     0.607180000000     0.450549   
Zn22     Zn     0.578650000000     0.096500000000     0.521070000000     0.451612   
Zn23     Zn     0.636080000000     0.094280000000     0.624590000000     0.45664    
Zn24     Zn     0.642620000000     0.004770000000     0.553610000000     0.459922   
Zn25     Zn     0.570910000000     0.603950000000     0.100440000000     0.450868   
Zn26     Zn     0.566630000000     0.528460000000     0.007550000000     0.453884   
Zn27     Zn     0.472670000000     0.546160000000     0.076140000000     0.44682    
Zn28     Zn     0.512400000000     0.629940000000     0.000910000000     0.457113   
Zn29     Zn     0.508090000000     0.610520000000     0.533370000000     0.444922   
Zn30     Zn     0.538790000000     0.509350000000     0.588550000000     0.449454   
Zn31     Zn     0.607960000000     0.556380000000     0.504780000000     0.458349   
Zn32     Zn     0.597790000000     0.606440000000     0.607590000000     0.457591   


