data_structure

_audit_creation_method RASPA-1.0
_audit_creation_date 2023-5-19
_audit_author_name 'Poobodin Mano'

_cell_length_a    30.456
_cell_length_b    30.0233
_cell_length_c    30.9129
_cell_angle_alpha 90
_cell_angle_beta  90
_cell_angle_gamma 90
_cell_volume      28266.4

_symmetry_cell_setting          triclinic
_symmetry_space_group_name_Hall 'P 1'
_symmetry_space_group_name_H-M  'P 1'
_symmetry_Int_Tables_number     1

_symmetry_equiv_pos_as_xyz 'x,y,z'

loop_
_atom_site_label
_atom_site_type_symbol
_atom_site_fract_x
_atom_site_fract_y
_atom_site_fract_z
_atom_site_charge
C1       C      0.015790000000     0.078370000000     0.146040000000     0.377057   
C2       C      0.157610000000     0.052960000000     0.059910000000     0.37913    
C3       C      0.033240000000     0.952060000000     0.023420000000     0.379311   
C4       C      0.057950000000     0.072910000000     0.910780000000     0.377591   
C5       C      0.070310000000     0.192740000000     0.021590000000     0.377069   
C6       C      0.923170000000     0.090310000000     0.013500000000     0.376921   
C7       C      0.168740000000     0.015250000000     0.506820000000     0.376387   
C8       C      0.106600000000     0.178440000000     0.527430000000     0.378347   
C9       C      0.041930000000     0.073720000000     0.408510000000     0.376001   
C10      C      0.945920000000     0.108590000000     0.541510000000     0.377767   
C11      C      0.077200000000     0.063130000000     0.645490000000     0.378862   
C12      C      0.013440000000     0.950410000000     0.532660000000     0.376301   
C13      C      0.059370000000     0.575870000000     0.162420000000     0.377594   
C14      C      0.167740000000     0.590860000000     0.028120000000     0.375078   
C15      C      0.065460000000     0.450130000000     0.052430000000     0.37928    
C16      C      0.047370000000     0.572870000000     0.923310000000     0.377808   
C17      C      0.021730000000     0.690320000000     0.050770000000     0.377345   
C18      C      0.929770000000     0.547460000000     0.041880000000     0.378953   
C19      C      0.057970000000     0.443110000000     0.539190000000     0.377526   
C20      C      0.023320000000     0.556180000000     0.423510000000     0.377303   
C21      C      0.903970000000     0.534820000000     0.542130000000     0.376007   
C22      C      0.995250000000     0.681670000000     0.542330000000     0.375786   
C23      C      0.138900000000     0.599670000000     0.546590000000     0.377303   
C24      C      0.020950000000     0.551220000000     0.661770000000     0.377617   
C25      C      0.413750000000     0.013170000000     0.996880000000     0.378014   
C26      C      0.496010000000     0.035800000000     0.150330000000     0.376964   
C27      C      0.538550000000     0.906490000000     0.055810000000     0.379019   
C28      C      0.645610000000     0.044250000000     0.058320000000     0.37762    
C29      C      0.513440000000     0.150430000000     0.028790000000     0.374636   
C30      C      0.557700000000     0.015430000000     0.919410000000     0.37529    
C31      C      0.448670000000     0.989270000000     0.546800000000     0.376246   
C32      C      0.593900000000     0.903490000000     0.539150000000     0.376224   
C33      C      0.567880000000     0.019410000000     0.420080000000     0.377098   
C34      C      0.682860000000     0.057810000000     0.540260000000     0.377209   
C35      C      0.573900000000     0.030800000000     0.658620000000     0.375263   
C36      C      0.527300000000     0.140650000000     0.531000000000     0.37765    
C37      C      0.426890000000     0.527090000000     0.023060000000     0.375794   
C38      C      0.557710000000     0.410240000000     0.046100000000     0.375335   
C39      C      0.558380000000     0.494430000000     0.907570000000     0.375632   
C40      C      0.666940000000     0.546780000000     0.037190000000     0.379233   
C41      C      0.537960000000     0.563090000000     0.136350000000     0.374719   
C42      C      0.541320000000     0.645880000000     0.978320000000     0.377856   
C43      C      0.387950000000     0.508290000000     0.537680000000     0.377928   
C44      C      0.504810000000     0.564110000000     0.651220000000     0.376183   
C45      C      0.539270000000     0.428570000000     0.550730000000     0.377887   
C46      C      0.622250000000     0.575870000000     0.521970000000     0.375362   
C47      C      0.472410000000     0.664600000000     0.522240000000     0.375622   
C48      C      0.499480000000     0.530050000000     0.413960000000     0.376087   
C49      C      0.517500000000     0.529220000000     0.761080000000    -0.078423   
C50      C      0.550930000000     0.518310000000     0.796690000000    -0.0787047  
C51      C      0.530470000000     0.488810000000     0.831810000000     0.00599463 
C52      C      0.537830000000     0.557690000000     0.725060000000     0.00524488 
C53      C      0.505930000000     0.535310000000     0.292510000000    -0.07983    
C54      C      0.523460000000     0.566560000000     0.257270000000    -0.0800478  
C55      C      0.517030000000     0.546270000000     0.212040000000     0.00570587 
C56      C      0.512020000000     0.554700000000     0.338150000000     0.00584421 
C57      C      0.518970000000     0.764100000000     0.537360000000    -0.0782661  
C58      C      0.545930000000     0.803270000000     0.519630000000    -0.0780975  
C59      C      0.575120000000     0.824130000000     0.554710000000     0.00583321 
C60      C      0.489950000000     0.743060000000     0.502230000000     0.0063634  
C61      C      0.542940000000     0.303840000000     0.555440000000    -0.0799337  
C62      C      0.522070000000     0.264930000000     0.530640000000    -0.0796996  
C63      C      0.532420000000     0.220090000000     0.552110000000     0.00562825 
C64      C      0.532590000000     0.348470000000     0.533550000000     0.00564813 
C65      C      0.529910000000     0.755650000000     0.000710000000    -0.077699   
C66      C      0.552030000000     0.796570000000     0.020880000000    -0.0785909  
C67      C      0.518200000000     0.827170000000     0.042260000000     0.00699693 
C68      C      0.563440000000     0.725750000000     0.978020000000     0.00702585 
C69      C      0.535420000000     0.288320000000     0.065770000000    -0.0758469  
C70      C      0.528270000000     0.275050000000     0.018070000000    -0.0768997  
C71      C      0.539880000000     0.225940000000     0.009190000000     0.00482178 
C72      C      0.527890000000     0.338450000000     0.073640000000     0.00430171 
C73      C      0.588890000000     0.003550000000     0.776520000000    -0.0767756  
C74      C      0.569360000000     0.042360000000     0.802970000000    -0.0765115  
C75      C      0.587300000000     0.044180000000     0.849520000000     0.00440333 
C76      C      0.566850000000     0.998040000000     0.732010000000     0.00461413 
C77      C      0.539580000000     0.016540000000     0.302660000000    -0.079497   
C78      C      0.506330000000     0.036540000000     0.270710000000    -0.0798672  
C79      C      0.512290000000     0.015440000000     0.225910000000     0.00485251 
C80      C      0.535180000000     0.036050000000     0.348270000000     0.00553347 
C81      C      0.745300000000     0.571190000000     0.519580000000    -0.0798744  
C82      C      0.781800000000     0.546600000000     0.544160000000    -0.0796995  
C83      C      0.826700000000     0.552210000000     0.522080000000     0.00552292 
C84      C      0.700540000000     0.565760000000     0.542010000000     0.00525244 
C85      C      0.243860000000     0.565320000000     0.554470000000    -0.0777053  
C86      C      0.283940000000     0.545200000000     0.531620000000    -0.0787546  
C87      C      0.310500000000     0.515880000000     0.562630000000     0.00812431 
C88      C      0.217470000000     0.595660000000     0.524300000000     0.00658856 
C89      C      0.786890000000     0.528050000000     0.057370000000    -0.0780866  
C90      C      0.820210000000     0.490340000000     0.050340000000    -0.0787734  
C91      C      0.866160000000     0.503030000000     0.066600000000     0.00624582 
C92      C      0.742540000000     0.517010000000     0.036550000000     0.00565644 
C93      C      0.280860000000     0.586800000000     0.978170000000    -0.0768243  
C94      C      0.307520000000     0.556570000000     0.008520000000    -0.0787889  
C95      C      0.356740000000     0.559140000000     0.997910000000     0.00510915 
C96      C      0.231260000000     0.577970000000     0.980800000000     0.00405078 
C97      C      0.049170000000     0.552750000000     0.779980000000    -0.0781993  
C98      C      0.085780000000     0.573170000000     0.807700000000    -0.0786136  
C99      C      0.084640000000     0.555680000000     0.854390000000     0.00606423 
C100     C      0.048820000000     0.572350000000     0.734070000000     0.00559638 
C101     C      0.040480000000     0.513300000000     0.310280000000    -0.0782377  
C102     C      0.055320000000     0.552440000000     0.281910000000    -0.0785008  
C103     C      0.042350000000     0.545020000000     0.234470000000     0.00561855 
C104     C      0.052610000000     0.520200000000     0.358020000000     0.00557759 
C105     C      0.981940000000     0.829760000000     0.521750000000    -0.0776525  
C106     C      0.988750000000     0.790880000000     0.490160000000    -0.0781184  
C107     C      0.964730000000     0.748340000000     0.504790000000     0.0047536  
C108     C      0.004260000000     0.872750000000     0.506050000000     0.00502971 
C109     C      0.115210000000     0.301690000000     0.523090000000    -0.077468   
C110     C      0.103810000000     0.340040000000     0.492200000000    -0.0788508  
C111     C      0.110400000000     0.385940000000     0.513130000000     0.00520352 
C112     C      0.106580000000     0.256540000000     0.501510000000     0.00473727 
C113     C      0.831080000000     0.086750000000     0.537210000000    -0.0763732  
C114     C      0.803620000000     0.047440000000     0.554030000000    -0.07924    
C115     C      0.761450000000     0.040360000000     0.527520000000     0.00541522 
C116     C      0.869370000000     0.097730000000     0.567820000000     0.003685   
C117     C      0.327690000000     0.993420000000     0.539720000000    -0.0789119  
C118     C      0.289820000000     0.993100000000     0.506870000000    -0.0796195  
C119     C      0.246100000000     0.004640000000     0.528920000000     0.00505068 
C120     C      0.372320000000     0.985570000000     0.517930000000     0.00501162 
C121     C      0.025400000000     0.833210000000     0.055020000000    -0.0780922  
C122     C      0.005020000000     0.806820000000     0.092420000000    -0.0774071  
C123     C      0.023310000000     0.759250000000     0.094320000000     0.00540197 
C124     C      0.005480000000     0.879930000000     0.051110000000     0.00594063 
C125     C      0.097710000000     0.329890000000     0.045960000000    -0.0782501  
C126     C      0.132900000000     0.300790000000     0.024640000000    -0.0773125  
C127     C      0.125620000000     0.251340000000     0.035000000000     0.00514401 
C128     C      0.103390000000     0.379290000000     0.034720000000     0.00635717 
C129     C      0.766570000000     0.058270000000     0.047380000000    -0.0793583  
C130     C      0.800050000000     0.086570000000     0.022550000000    -0.0803498  
C131     C      0.846720000000     0.068570000000     0.029360000000     0.0061433  
C132     C      0.719400000000     0.074940000000     0.040980000000     0.00590634 
C133     C      0.263600000000     0.040340000000     0.029710000000    -0.0784901  
C134     C      0.301720000000     0.010990000000     0.014530000000    -0.0778191  
C135     C      0.336100000000     0.038400000000     0.990290000000     0.00665655 
C136     C      0.228910000000     0.012810000000     0.053450000000     0.00830553 
C137     C      0.022260000000     0.070000000000     0.796020000000    -0.0785652  
C138     C      0.059970000000     0.076430000000     0.763710000000    -0.0774517  
C139     C      0.050000000000     0.053460000000     0.720510000000     0.00511365 
C140     C      0.030260000000     0.094990000000     0.838620000000     0.00515056 
C141     C      0.037970000000     0.126330000000     0.299180000000    -0.0785335  
C142     C      0.013400000000     0.097340000000     0.266190000000    -0.0778891  
C143     C      0.027880000000     0.108050000000     0.219770000000     0.00522364 
C144     C      0.020880000000     0.119940000000     0.345510000000     0.0049139  
H1       H      0.564180000000     0.538310000000     0.708760000000     0.0452718  
H2       H      0.552930000000     0.588070000000     0.739240000000     0.0331338  
H3       H      0.500380000000     0.505010000000     0.844770000000     0.0449963  
H4       H      0.520440000000     0.456460000000     0.817370000000     0.0314996  
H5       H      0.562710000000     0.549790000000     0.811700000000     0.0530345  
H6       H      0.579570000000     0.500730000000     0.782280000000     0.0479887  
H7       H      0.590770000000     0.462160000000     0.857610000000     0.101938   
H8       H      0.504770000000     0.497810000000     0.746690000000     0.0509266  
H9       H      0.489430000000     0.547570000000     0.775690000000     0.048312   
H10      H      0.476360000000     0.588230000000     0.707270000000     0.101517   
H11      H      0.493090000000     0.586230000000     0.341090000000     0.0392872  
H12      H      0.547400000000     0.561870000000     0.343760000000     0.0401749  
H13      H      0.533570000000     0.513250000000     0.210710000000     0.0410366  
H14      H      0.481380000000     0.541520000000     0.205770000000     0.0390967  
H15      H      0.559060000000     0.572630000000     0.262760000000     0.0485006  
H16      H      0.505860000000     0.598980000000     0.259000000000     0.0472476  
H17      H      0.546820000000     0.607020000000     0.187150000000     0.10159    
H18      H      0.470370000000     0.529080000000     0.286890000000     0.0474922  
H19      H      0.523590000000     0.502930000000     0.290520000000     0.0480808  
H20      H      0.482710000000     0.492750000000     0.360450000000     0.10171    
H21      H      0.510630000000     0.729210000000     0.475800000000     0.0441216  
H22      H      0.468490000000     0.769080000000     0.487820000000     0.0306315  
H23      H      0.554540000000     0.837230000000     0.581570000000     0.0447207  
H24      H      0.597070000000     0.798150000000     0.568480000000     0.0318252  
H25      H      0.523380000000     0.829230000000     0.506770000000     0.0526537  
H26      H      0.567000000000     0.791260000000     0.492650000000     0.0490812  
H27      H      0.627470000000     0.849040000000     0.514710000000     0.10189    
H28      H      0.541500000000     0.738220000000     0.550420000000     0.0538591  
H29      H      0.497760000000     0.776170000000     0.564220000000     0.049442   
H30      H      0.435330000000     0.719470000000     0.539940000000     0.101353   
H31      H      0.496310000000     0.352420000000     0.531500000000     0.0431461  
H32      H      0.546350000000     0.348650000000     0.500220000000     0.0380219  
H33      H      0.568710000000     0.216070000000     0.553930000000     0.0437978  
H34      H      0.518820000000     0.219560000000     0.585490000000     0.0370604  
H35      H      0.534780000000     0.264530000000     0.496900000000     0.049496   
H36      H      0.485840000000     0.269530000000     0.529510000000     0.0470668  
H37      H      0.485960000000     0.189690000000     0.507520000000     0.101541   
H38      H      0.530070000000     0.304390000000     0.589120000000     0.0487955  
H39      H      0.579170000000     0.299250000000     0.556700000000     0.0473269  
H40      H      0.576580000000     0.379560000000     0.580260000000     0.101297   
H41      H      0.589760000000     0.715710000000     0.000990000000     0.0448431  
H42      H      0.579330000000     0.744630000000     0.951340000000     0.0307251  
H43      H      0.495630000000     0.840820000000     0.017270000000     0.0447034  
H44      H      0.497980000000     0.807690000000     0.065480000000     0.0315723  
H45      H      0.569850000000     0.815630000000     0.995510000000     0.0528307  
H46      H      0.576190000000     0.785350000000     0.045590000000     0.0501847  
H47      H      0.558320000000     0.853260000000     0.093720000000     0.102237   
H48      H      0.513120000000     0.736140000000     0.026460000000     0.0541824  
H49      H      0.504870000000     0.766620000000     0.976760000000     0.0483079  
H50      H      0.523540000000     0.691460000000     0.931060000000     0.101288   
H51      H      0.529850000000     0.345130000000     0.108950000000     0.037986   
H52      H      0.494450000000     0.347750000000     0.062310000000     0.041107   
H53      H      0.539500000000     0.220410000000     0.973630000000     0.0387182  
H54      H      0.573630000000     0.218850000000     0.021120000000     0.0403848  
H55      H      0.549350000000     0.295940000000     0.996900000000     0.0481294  
H56      H      0.493560000000     0.281360000000     0.008710000000     0.0484916  
H57      H      0.480430000000     0.208400000000     0.044460000000     0.101233   
H58      H      0.512250000000     0.269360000000     0.086560000000     0.0462883  
H59      H      0.569330000000     0.279470000000     0.076000000000     0.0479409  
H60      H      0.588810000000     0.349700000000     0.038590000000     0.101082   
H61      H      0.530540000000     0.997450000000     0.735590000000     0.038069   
H62      H      0.577280000000     0.965360000000     0.718510000000     0.0423618  
H63      H      0.623490000000     0.039450000000     0.849680000000     0.0349231  
H64      H      0.580240000000     0.077940000000     0.862620000000     0.0435717  
H65      H      0.532950000000     0.039630000000     0.804070000000     0.0515394  
H66      H      0.577530000000     0.074350000000     0.786830000000     0.0446534  
H67      H      0.558790000000     0.979320000000     0.862780000000     0.10137    
H68      H      0.624770000000     0.008740000000     0.772110000000     0.0484417  
H69      H      0.584550000000     0.971790000000     0.794410000000     0.0444652  
H70      H      0.592180000000     0.063460000000     0.714510000000     0.101477   
H71      H      0.502390000000     0.027010000000     0.361480000000     0.0430993  
H72      H      0.537890000000     0.072950000000     0.346890000000     0.0368993  
H73      H      0.547640000000     0.017750000000     0.216970000000     0.0456958  
H74      H      0.503090000000     0.979630000000     0.227310000000     0.0362102  
H75      H      0.511650000000     0.073110000000     0.268320000000     0.0500217  
H76      H      0.472310000000     0.030340000000     0.282320000000     0.0465939  
H77      H      0.455080000000     0.051350000000     0.201940000000     0.101246   
H78      H      0.534910000000     0.979820000000     0.304460000000     0.0490541  
H79      H      0.573360000000     0.023210000000     0.290550000000     0.0475943  
H80      H      0.599510000000     0.008000000000     0.362100000000     0.101824   
H81      H      0.701250000000     0.582570000000     0.574040000000     0.0377612  
H82      H      0.693970000000     0.529660000000     0.547060000000     0.0425354  
H83      H      0.824780000000     0.540540000000     0.488000000000     0.0366801  
H84      H      0.835630000000     0.588160000000     0.522200000000     0.0431316  
H85      H      0.773530000000     0.510540000000     0.545680000000     0.0474451  
H86      H      0.783880000000     0.559640000000     0.577780000000     0.0497593  
H87      H      0.850440000000     0.498090000000     0.562400000000     0.102445   
H88      H      0.753450000000     0.607240000000     0.517490000000     0.0468195  
H89      H      0.743100000000     0.557590000000     0.486170000000     0.0488264  
H90      H      0.673700000000     0.607460000000     0.490870000000     0.100939   
H91      H      0.205840000000     0.576650000000     0.495610000000     0.0440889  
H92      H      0.238910000000     0.623000000000     0.512370000000     0.031453   
H93      H      0.323670000000     0.536240000000     0.589770000000     0.0433863  
H94      H      0.288670000000     0.490110000000     0.576960000000     0.0295273  
H95      H      0.305410000000     0.572320000000     0.519220000000     0.0550924  
H96      H      0.272710000000     0.524740000000     0.503730000000     0.0495857  
H97      H      0.337640000000     0.464800000000     0.521670000000     0.101455   
H98      H      0.222160000000     0.538060000000     0.566200000000     0.0529094  
H99      H      0.255020000000     0.585020000000     0.582910000000     0.0489167  
H100     H      0.188150000000     0.640530000000     0.570310000000     0.101979   
H101     H      0.730700000000     0.484460000000     0.049240000000     0.0415749  
H102     H      0.746530000000     0.514390000000     0.000880000000     0.0397689  
H103     H      0.864230000000     0.516460000000     0.100070000000     0.0388967  
H104     H      0.886540000000     0.472290000000     0.067370000000     0.0410629  
H105     H      0.822100000000     0.481490000000     0.015440000000     0.0487389  
H106     H      0.808950000000     0.460320000000     0.068260000000     0.0444485  
H107     H      0.868860000000     0.550070000000     0.012790000000     0.102321   
H108     H      0.782240000000     0.533200000000     0.092720000000     0.0488273  
H109     H      0.799260000000     0.559660000000     0.043180000000     0.0499454  
H110     H      0.720310000000     0.580900000000     0.061900000000     0.102252   
H111     H      0.225080000000     0.541430000000     0.981000000000     0.0433439  
H112     H      0.215810000000     0.591660000000     0.951040000000     0.0360107  
H113     H      0.362130000000     0.548180000000     0.963930000000     0.0409299  
H114     H      0.367970000000     0.594250000000     0.001150000000     0.0386599  
H115     H      0.296680000000     0.521390000000     0.004870000000     0.0497548  
H116     H      0.301880000000     0.567020000000     0.042580000000     0.0509626  
H117     H      0.367480000000     0.516510000000     0.053980000000     0.101634   
H118     H      0.287980000000     0.622410000000     0.985180000000     0.0459468  
H119     H      0.291200000000     0.580270000000     0.944230000000     0.042796   
H120     H      0.226120000000     0.626040000000     0.033600000000     0.101251   
H121     H      0.082980000000     0.573440000000     0.721300000000     0.0402132  
H122     H      0.035610000000     0.606860000000     0.735010000000     0.0403334  
H123     H      0.079910000000     0.518940000000     0.854790000000     0.0392222  
H124     H      0.117010000000     0.563010000000     0.869490000000     0.0389025  
H125     H      0.083240000000     0.610140000000     0.807720000000     0.0481005  
H126     H      0.118040000000     0.564200000000     0.793240000000     0.0436151  
H127     H      0.028410000000     0.599510000000     0.864520000000     0.102351   
H128     H      0.054640000000     0.516150000000     0.778110000000     0.0486563  
H129     H      0.016620000000     0.558690000000     0.795210000000     0.0503777  
H130     H      0.004830000000     0.517640000000     0.717840000000     0.102715   
H131     H      0.086500000000     0.533710000000     0.360970000000     0.0399381  
H132     H      0.052040000000     0.487060000000     0.374120000000     0.0387656  
H133     H      0.051440000000     0.510600000000     0.224530000000     0.0395762  
H134     H      0.006190000000     0.548930000000     0.231070000000     0.04063    
H135     H      0.091650000000     0.555540000000     0.284260000000     0.0480913  
H136     H      0.040280000000     0.583960000000     0.293620000000     0.0504102  
H137     H      0.087860000000     0.598800000000     0.218920000000     0.101857   
H138     H      0.004470000000     0.507990000000     0.307080000000     0.0473568  
H139     H      0.057110000000     0.482510000000     0.298760000000     0.0433754  
H140     H      0.994970000000     0.563270000000     0.362980000000     0.101312   
H141     H      0.990640000000     0.882430000000     0.474010000000     0.0394314  
H142     H      0.040180000000     0.866980000000     0.502720000000     0.0411887  
H143     H      0.930660000000     0.756240000000     0.515170000000     0.0336991  
H144     H      0.962330000000     0.725990000000     0.476210000000     0.0451173  
H145     H      0.024400000000     0.783770000000     0.486440000000     0.0519394  
H146     H      0.975750000000     0.800700000000     0.457920000000     0.0444109  
H147     H      0.999240000000     0.745780000000     0.566240000000     0.101773   
H148     H      0.946150000000     0.836100000000     0.525470000000     0.0468395  
H149     H      0.995570000000     0.820990000000     0.553970000000     0.0483968  
H150     H      0.976740000000     0.902670000000     0.564080000000     0.101333   
H151     H      0.122660000000     0.255390000000     0.469230000000     0.0341259  
H152     H      0.070530000000     0.252880000000     0.496830000000     0.0454708  
H153     H      0.139260000000     0.385920000000     0.535150000000     0.0337157  
H154     H      0.117570000000     0.409830000000     0.486540000000     0.0435489  
H155     H      0.069380000000     0.336790000000     0.480570000000     0.0507866  
H156     H      0.125660000000     0.337730000000     0.463440000000     0.0430241  
H157     H      0.053660000000     0.376080000000     0.554840000000     0.102439   
H158     H      0.150500000000     0.304160000000     0.532060000000     0.0459987  
H159     H      0.095190000000     0.304150000000     0.553060000000     0.050849   
H160     H      0.154160000000     0.224710000000     0.543590000000     0.101506   
H161     H      0.882660000000     0.066440000000     0.581970000000     0.0462816  
H162     H      0.857130000000     0.118500000000     0.595020000000     0.0330385  
H163     H      0.767280000000     0.046900000000     0.492580000000     0.036999   
H164     H      0.751870000000     0.004770000000     0.530960000000     0.0437346  
H165     H      0.795080000000     0.052490000000     0.588700000000     0.0497745  
H166     H      0.823940000000     0.016720000000     0.551940000000     0.0466661  
H167     H      0.733950000000     0.099470000000     0.557890000000     0.101247   
H168     H      0.844180000000     0.077790000000     0.504750000000     0.0517666  
H169     H      0.810190000000     0.116890000000     0.533520000000     0.046676   
H170     H      0.894090000000     0.151060000000     0.527570000000     0.10168    
H171     H      0.380750000000     0.015500000000     0.498420000000     0.0450557  
H172     H      0.370340000000     0.956400000000     0.495860000000     0.0333024  
H173     H      0.241800000000     0.983840000000     0.558400000000     0.0364219  
H174     H      0.247100000000     0.040260000000     0.538860000000     0.0452778  
H175     H      0.287620000000     0.959380000000     0.492120000000     0.0462827  
H176     H      0.296310000000     0.017720000000     0.480750000000     0.0497312  
H177     H      0.211230000000     0.971260000000     0.476800000000     0.101495   
H178     H      0.328650000000     0.025960000000     0.556930000000     0.0509165  
H179     H      0.321610000000     0.966780000000     0.564020000000     0.046749   
H180     H      0.397880000000     0.955300000000     0.576260000000     0.100903   
H181     H      0.004660000000     0.895720000000     0.083690000000     0.0428248  
H182     H      0.971360000000     0.877620000000     0.038520000000     0.0370468  
H183     H      0.059840000000     0.760170000000     0.094270000000     0.0430038  
H184     H      0.012430000000     0.743660000000     0.125140000000     0.0373775  
H185     H      0.968670000000     0.805750000000     0.089030000000     0.0464988  
H186     H      0.012800000000     0.823840000000     0.123440000000     0.0444061  
H187     H      0.979480000000     0.743090000000     0.041000000000     0.101925   
H188     H      0.061360000000     0.836190000000     0.060790000000     0.0512541  
H189     H      0.020380000000     0.815280000000     0.023930000000     0.0515961  
H190     H      0.052110000000     0.890970000000     0.998990000000     0.102542   
H191     H      0.098490000000     0.384080000000     0.999360000000     0.0408481  
H192     H      0.137070000000     0.390370000000     0.043540000000     0.037257   
H193     H      0.154480000000     0.232210000000     0.023180000000     0.0364784  
H194     H      0.123320000000     0.246670000000     0.070640000000     0.0422109  
H195     H      0.165750000000     0.310760000000     0.037010000000     0.0430827  
H196     H      0.132750000000     0.305790000000     0.988990000000     0.0461563  
H197     H      0.072940000000     0.251750000000     0.987450000000     0.101663   
H198     H      0.064500000000     0.319080000000     0.035330000000     0.0532589  
H199     H      0.099860000000     0.325690000000     0.081670000000     0.0482738  
H200     H      0.053960000000     0.390980000000     0.084100000000     0.10186    
H201     H      0.710780000000     0.072450000000     0.006080000000     0.0427415  
H202     H      0.716850000000     0.110340000000     0.051230000000     0.0357851  
H203     H      0.853710000000     0.066790000000     0.064670000000     0.0410779  
H204     H      0.849100000000     0.034440000000     0.015540000000     0.0394315  
H205     H      0.798400000000     0.121570000000     0.034260000000     0.0479838  
H206     H      0.792150000000     0.086080000000     0.987430000000     0.0475197  
H207     H      0.869060000000     0.123780000000     0.989150000000     0.101807   
H208     H      0.768640000000     0.023080000000     0.036260000000     0.0495832  
H209     H      0.774720000000     0.059290000000     0.082460000000     0.0467282  
H210     H      0.701010000000     0.032720000000     0.095020000000     0.101753   
H211     H      0.244920000000     0.991630000000     0.078390000000     0.0306175  
H212     H      0.211840000000     0.990190000000     0.030440000000     0.0438821  
H213     H      0.321410000000     0.051930000000     0.960110000000     0.0315951  
H214     H      0.346680000000     0.067240000000     0.010330000000     0.0451691  
H215     H      0.289080000000     0.984330000000     0.992840000000     0.0480116  
H216     H      0.317490000000     0.995060000000     0.043070000000     0.0531744  
H217     H      0.367930000000     0.985500000000     0.955210000000     0.102122   
H218     H      0.276540000000     0.066430000000     0.051880000000     0.0506953  
H219     H      0.248050000000     0.057050000000     0.001470000000     0.053777   
H220     H      0.208610000000     0.057510000000     0.103980000000     0.10227    
H221     H      0.997770000000     0.098930000000     0.854630000000     0.0449665  
H222     H      0.043440000000     0.128920000000     0.832400000000     0.0362593  
H223     H      0.048560000000     0.016790000000     0.725230000000     0.0367278  
H224     H      0.017510000000     0.065160000000     0.708550000000     0.0439637  
H225     H      0.090880000000     0.062550000000     0.777260000000     0.0469247  
H226     H      0.064820000000     0.112650000000     0.757780000000     0.0500636  
H227     H      0.116040000000     0.070530000000     0.699880000000     0.102032   
H228     H      0.991490000000     0.083110000000     0.781370000000     0.0449539  
H229     H      0.017250000000     0.033940000000     0.802690000000     0.0504512  
H230     H      0.085840000000     0.051760000000     0.853240000000     0.101434   
H231     H      0.984380000000     0.120080000000     0.346070000000     0.0357274  
H232     H      0.032300000000     0.149090000000     0.364680000000     0.0439598  
H233     H      0.020140000000     0.143410000000     0.212200000000     0.0386907  
H234     H      0.063980000000     0.103040000000     0.216970000000     0.0415927  
H235     H      0.977470000000     0.103370000000     0.269000000000     0.0470316  
H236     H      0.019870000000     0.061570000000     0.272930000000     0.0485477  
H237     H      0.980540000000     0.057780000000     0.199580000000     0.10129    
H238     H      0.073750000000     0.118980000000     0.298050000000     0.0501633  
H239     H      0.033450000000     0.161950000000     0.290280000000     0.0436616  
H240     H      0.043070000000     0.050840000000     0.345290000000     0.101566   
N1       N      0.562640000000     0.480150000000     0.866060000000    -0.20871    
N2       N      0.503560000000     0.571430000000     0.694560000000    -0.208717   
N3       N      0.535510000000     0.575310000000     0.178560000000    -0.208556   
N4       N      0.496550000000     0.522880000000     0.370720000000    -0.208838   
N5       N      0.602410000000     0.859200000000     0.535640000000    -0.208806   
N6       N      0.462040000000     0.708610000000     0.521460000000    -0.208927   
N7       N      0.513160000000     0.183340000000     0.527280000000    -0.209061   
N8       N      0.551440000000     0.385730000000     0.557970000000    -0.209275   
N9       N      0.540580000000     0.862610000000     0.066190000000    -0.20971    
N10      N      0.541320000000     0.686820000000     0.959650000000    -0.209747   
N11      N      0.508450000000     0.195400000000     0.029480000000    -0.207846   
N12      N      0.561030000000     0.365460000000     0.051360000000    -0.208066   
N13      N      0.566560000000     0.010070000000     0.876680000000    -0.208062   
N14      N      0.579500000000     0.033730000000     0.702100000000    -0.208013   
N15      N      0.485310000000     0.037620000000     0.192970000000    -0.208766   
N16      N      0.570100000000     0.018620000000     0.376270000000    -0.209071   
N17      N      0.860280000000     0.526170000000     0.544830000000    -0.208391   
N18      N      0.665410000000     0.585170000000     0.515600000000    -0.208635   
N19      N      0.345900000000     0.493370000000     0.539250000000    -0.209912   
N20      N      0.180720000000     0.615280000000     0.548160000000    -0.209402   
N21      N      0.886950000000     0.535840000000     0.038040000000    -0.20923    
N22      N      0.710180000000     0.551660000000     0.046390000000    -0.209649   
N23      N      0.382640000000     0.530920000000     0.027010000000    -0.208825   
N24      N      0.210500000000     0.599220000000     0.018460000000    -0.207747   
N25      N      0.049970000000     0.577340000000     0.879730000000    -0.20897    
N26      N      0.021870000000     0.544970000000     0.705190000000    -0.209204   
N27      N      0.064810000000     0.576650000000     0.205950000000    -0.209353   
N28      N      0.021440000000     0.549730000000     0.380110000000    -0.208829   
N29      N      0.988130000000     0.726310000000     0.540440000000    -0.207806   
N30      N      0.996580000000     0.908830000000     0.537070000000    -0.208858   
N31      N      0.071100000000     0.399920000000     0.537140000000    -0.208772   
N32      N      0.124090000000     0.220010000000     0.527860000000    -0.209045   
N33      N      0.725920000000     0.069080000000     0.543320000000    -0.208503   
N34      N      0.903540000000     0.122410000000     0.544440000000    -0.208828   
N35      N      0.208750000000     0.996540000000     0.499980000000    -0.208349   
N36      N      0.406060000000     0.976550000000     0.550660000000    -0.20865    
N37      N      0.007190000000     0.732320000000     0.058090000000    -0.208821   
N38      N      0.032030000000     0.906990000000     0.021650000000    -0.209685   
N39      N      0.085970000000     0.234250000000     0.013770000000    -0.208859   
N40      N      0.071380000000     0.405900000000     0.058740000000    -0.210046   
N41      N      0.879430000000     0.097260000000     0.008600000000    -0.2092     
N42      N      0.689100000000     0.048110000000     0.066990000000    -0.209306   
N43      N      0.373270000000     0.009910000000     0.978790000000    -0.209588   
N44      N      0.198050000000     0.042570000000     0.075230000000    -0.210274   
N45      N      0.084220000000     0.063920000000     0.688810000000    -0.209367   
N46      N      0.060510000000     0.070510000000     0.867000000000    -0.208498   
N47      N      0.005350000000     0.079150000000     0.188690000000    -0.209131   
N48      N      0.037180000000     0.078470000000     0.365040000000    -0.208039   
O1       O      0.042450000000     0.073910000000     0.029400000000    -0.37098    
O2       O      0.996410000000     0.050430000000     0.121640000000    -0.308339   
O3       O      0.133910000000     0.079380000000     0.081950000000    -0.310338   
O4       O      0.062470000000     0.972250000000     0.001560000000    -0.308529   
O5       O      0.044960000000     0.104810000000     0.131230000000    -0.305577   
O6       O      0.006310000000     0.973190000000     0.047460000000    -0.305853   
O7       O      0.143640000000     0.035760000000     0.024760000000    -0.30572    
O8       O      0.028700000000     0.097320000000     0.928220000000    -0.308184   
O9       O      0.086110000000     0.169770000000     0.052600000000    -0.307565   
O10      O      0.084350000000     0.049900000000     0.933670000000    -0.30628    
O11      O      0.041400000000     0.176760000000     0.996200000000    -0.308369   
O12      O      0.949940000000     0.116990000000     0.995340000000    -0.30765    
O13      O      0.936720000000     0.057570000000     0.036190000000    -0.306129   
O14      O      0.059060000000     0.064630000000     0.526750000000    -0.366892   
O15      O      0.136030000000     0.001710000000     0.484700000000    -0.304713   
O16      O      0.126830000000     0.147130000000     0.546800000000    -0.306974   
O17      O      0.033250000000     0.106460000000     0.433270000000    -0.307764   
O18      O      0.164430000000     0.045470000000     0.535450000000    -0.306005   
O19      O      0.055580000000     0.036720000000     0.423700000000    -0.304215   
O20      O      0.070570000000     0.171320000000     0.507700000000    -0.307919   
O21      O      0.958960000000     0.075370000000     0.563680000000    -0.308238   
O22      O      0.108620000000     0.073630000000     0.620400000000    -0.308378   
O23      O      0.971810000000     0.128770000000     0.515800000000    -0.307368   
O24      O      0.039610000000     0.052390000000     0.630620000000    -0.306701   
O25      O      0.004440000000     0.979110000000     0.561600000000    -0.309297   
O26      O      0.037590000000     0.960190000000     0.500230000000    -0.302344   
O27      O      0.048910000000     0.571390000000     0.043120000000    -0.369712   
O28      O      0.030900000000     0.549950000000     0.145640000000    -0.306581   
O29      O      0.147160000000     0.616510000000     0.054110000000    -0.303348   
O30      O      0.086170000000     0.470490000000     0.022450000000    -0.305571   
O31      O      0.083450000000     0.600830000000     0.139060000000    -0.307153   
O32      O      0.039180000000     0.470550000000     0.077430000000    -0.311442   
O33      O      0.148430000000     0.558500000000     0.009510000000    -0.308659   
O34      O      0.021190000000     0.597970000000     0.944170000000    -0.307651   
O35      O      0.054900000000     0.675520000000     0.071490000000    -0.305354   
O36      O      0.072170000000     0.545090000000     0.942720000000    -0.306749   
O37      O      0.000460000000     0.665800000000     0.024520000000    -0.307968   
O38      O      0.946100000000     0.574150000000     0.014270000000    -0.308662   
O39      O      0.953100000000     0.530800000000     0.072040000000    -0.307021   
O40      O      0.022940000000     0.561520000000     0.542730000000    -0.367683   
O41      O      0.023320000000     0.453020000000     0.560210000000    -0.305049   
O42      O      0.055870000000     0.540970000000     0.444780000000    -0.308046   
O43      O      0.917820000000     0.567320000000     0.519280000000    -0.304125   
O44      O      0.080130000000     0.472910000000     0.519690000000    -0.309959   
O45      O      0.930410000000     0.510220000000     0.563290000000    -0.306038   
O46      O      0.991630000000     0.575950000000     0.442360000000    -0.306846   
O47      O      0.018160000000     0.666080000000     0.573350000000    -0.305127   
O48      O      0.128370000000     0.569540000000     0.519450000000    -0.307075   
O49      O      0.979980000000     0.656340000000     0.512850000000    -0.30621    
O50      O      0.110730000000     0.615830000000     0.572630000000    -0.307704   
O51      O      0.039120000000     0.585470000000     0.645110000000    -0.30483    
O52      O      0.002650000000     0.521720000000     0.638360000000    -0.307494   
O53      O      0.527660000000     0.028100000000     0.034760000000    -0.367873   
O54      O      0.443730000000     0.987030000000     0.983650000000    -0.308684   
O55      O      0.469820000000     0.052050000000     0.122270000000    -0.305277   
O56      O      0.557230000000     0.934430000000     0.080630000000    -0.309311   
O57      O      0.421480000000     0.042610000000     0.025660000000    -0.306021   
O58      O      0.517600000000     0.919230000000     0.022350000000    -0.307354   
O59      O      0.531990000000     0.017600000000     0.139080000000    -0.309147   
O60      O      0.628840000000     0.064520000000     0.026010000000    -0.305028   
O61      O      0.484910000000     0.126530000000     0.047950000000    -0.306579   
O62      O      0.622390000000     0.019780000000     0.082920000000    -0.309286   
O63      O      0.546290000000     0.132910000000     0.009530000000    -0.302917   
O64      O      0.568530000000     0.051320000000     0.938910000000    -0.303486   
O65      O      0.537590000000     0.984230000000     0.939030000000    -0.307969   
O66      O      0.565450000000     0.023610000000     0.539470000000    -0.367147   
O67      O      0.460590000000     0.014010000000     0.515400000000    -0.305498   
O68      O      0.564660000000     0.917460000000     0.565380000000    -0.305205   
O69      O      0.600700000000     0.005390000000     0.441730000000    -0.307069   
O70      O      0.476150000000     0.975780000000     0.574970000000    -0.307302   
O71      O      0.533450000000     0.034000000000     0.438760000000    -0.306102   
O72      O      0.615330000000     0.930390000000     0.515330000000    -0.307381   
O73      O      0.654480000000     0.082150000000     0.559080000000    -0.307362   
O74      O      0.557770000000     0.995520000000     0.641850000000    -0.303646   
O75      O      0.671570000000     0.022770000000     0.519820000000    -0.305917   
O76      O      0.585660000000     0.063630000000     0.635260000000    -0.307235   
O77      O      0.558900000000     0.131410000000     0.556490000000    -0.306409   
O78      O      0.508710000000     0.110550000000     0.508480000000    -0.307118   
O79      O      0.547780000000     0.530760000000     0.021480000000    -0.368546   
O80      O      0.446370000000     0.544540000000     0.990690000000    -0.306242   
O81      O      0.526640000000     0.431990000000     0.064100000000    -0.302875   
O82      O      0.589020000000     0.485730000000     0.934350000000    -0.306483   
O83      O      0.448290000000     0.507380000000     0.052860000000    -0.306401   
O84      O      0.524200000000     0.515930000000     0.919160000000    -0.306024   
O85      O      0.585910000000     0.429620000000     0.022300000000    -0.308514   
O86      O      0.640220000000     0.576520000000     0.050060000000    -0.30835    
O87      O      0.523530000000     0.525070000000     0.124360000000    -0.303297   
O88      O      0.653680000000     0.512360000000     0.016890000000    -0.306593   
O89      O      0.555070000000     0.590170000000     0.109450000000    -0.306791   
O90      O      0.562230000000     0.639250000000     0.013450000000    -0.306607   
O91      O      0.520730000000     0.614440000000     0.959640000000    -0.309154   
O92      O      0.504570000000     0.545750000000     0.532790000000    -0.365729   
O93      O      0.415930000000     0.486150000000     0.516000000000    -0.308738   
O94      O      0.471950000000     0.576080000000     0.628560000000    -0.307505   
O95      O      0.557330000000     0.459480000000     0.572600000000    -0.307199   
O96      O      0.398960000000     0.543550000000     0.557920000000    -0.306557   
O97      O      0.510000000000     0.437170000000     0.522510000000    -0.306931   
O98      O      0.538200000000     0.545580000000     0.633950000000    -0.304744   
O99      O      0.594200000000     0.591910000000     0.495680000000    -0.306995   
O100     O      0.450520000000     0.638960000000     0.546960000000    -0.307768   
O101     O      0.610530000000     0.550900000000     0.553320000000    -0.304143   
O102     O      0.503970000000     0.649780000000     0.499230000000    -0.305175   
O103     O      0.515400000000     0.566470000000     0.428480000000    -0.303131   
O104     O      0.486100000000     0.499570000000     0.439340000000    -0.308689   
Zn1      Zn     0.996790000000     0.039060000000     0.057540000000     0.453407   
Zn2      Zn     0.075010000000     0.106910000000     0.072910000000     0.454623   
Zn3      Zn     0.082930000000     0.035450000000     0.997620000000     0.453142   
Zn4      Zn     0.015670000000     0.115470000000     0.989210000000     0.456128   
Zn5      Zn     0.071150000000     0.016900000000     0.484700000000     0.447324   
Zn6      Zn     0.113290000000     0.082030000000     0.556190000000     0.454382   
Zn7      Zn     0.034290000000     0.116490000000     0.497310000000     0.453707   
Zn8      Zn     0.016950000000     0.043920000000     0.569750000000     0.45407    
Zn9      Zn     0.018190000000     0.532970000000     0.083810000000     0.45584    
Zn10     Zn     0.083660000000     0.614970000000     0.075430000000     0.450713   
Zn11     Zn     0.086910000000     0.536000000000     0.005770000000     0.452648   
Zn12     Zn     0.005690000000     0.601660000000     0.007220000000     0.457118   
Zn13     Zn     0.995440000000     0.512610000000     0.574490000000     0.454052   
Zn14     Zn     0.070970000000     0.537740000000     0.507940000000     0.453366   
Zn15     Zn     0.979210000000     0.589650000000     0.505210000000     0.450184   
Zn16     Zn     0.046240000000     0.605830000000     0.582990000000     0.451771   
Zn17     Zn     0.507810000000     0.980380000000     0.996690000000     0.454764   
Zn18     Zn     0.476870000000     0.060720000000     0.057360000000     0.45054    
Zn19     Zn     0.559310000000     0.001210000000     0.082620000000     0.457994   
Zn20     Zn     0.566540000000     0.068540000000     0.002700000000     0.445859   
Zn21     Zn     0.518210000000     0.044400000000     0.501470000000     0.451167   
Zn22     Zn     0.542040000000     0.979370000000     0.579860000000     0.44896    
Zn23     Zn     0.612310000000     0.996510000000     0.505350000000     0.453078   
Zn24     Zn     0.589930000000     0.074150000000     0.571180000000     0.45375    
Zn25     Zn     0.510300000000     0.549980000000     0.973930000000     0.451847   
Zn26     Zn     0.512960000000     0.498660000000     0.064650000000     0.447682   
Zn27     Zn     0.593380000000     0.491540000000     0.999260000000     0.454769   
Zn28     Zn     0.574640000000     0.583250000000     0.047650000000     0.453956   
Zn29     Zn     0.480250000000     0.493690000000     0.503570000000     0.455316   
Zn30     Zn     0.457370000000     0.574940000000     0.565100000000     0.451582   
Zn31     Zn     0.551450000000     0.526500000000     0.572340000000     0.448693   
Zn32     Zn     0.528420000000     0.587570000000     0.489940000000     0.447455   


