data_structure

_audit_creation_method RASPA-1.0
_audit_creation_date 2023-5-19
_audit_author_name 'Poobodin Mano'

_cell_length_a    25.8461
_cell_length_b    25.9273
_cell_length_c    25.8383
_cell_angle_alpha 90
_cell_angle_beta  90
_cell_angle_gamma 90
_cell_volume      17314.8

_symmetry_cell_setting          triclinic
_symmetry_space_group_name_Hall 'P 1'
_symmetry_space_group_name_H-M  'P 1'
_symmetry_Int_Tables_number     1

_symmetry_equiv_pos_as_xyz 'x,y,z'

loop_
_atom_site_label
_atom_site_type_symbol
_atom_site_fract_x
_atom_site_fract_y
_atom_site_fract_z
_atom_site_charge
C1       C      0.001580000000     0.993120000000     0.141840000000     0.368173   
C2       C      0.143720000000     0.994880000000     0.998690000000     0.375111   
C3       C      0.996980000000     0.849730000000     0.995990000000     0.36729    
C4       C      0.003570000000     0.997260000000     0.856740000000     0.370681   
C5       C      0.999080000000     0.138070000000     0.999580000000     0.377251   
C6       C      0.856040000000     0.994800000000     0.999270000000     0.3722     
C7       C      0.003270000000     0.992860000000     0.356750000000     0.369075   
C8       C      0.989470000000     0.850290000000     0.500630000000     0.370109   
C9       C      0.138380000000     0.994540000000     0.497120000000     0.376432   
C10      C      0.001180000000     0.993560000000     0.642270000000     0.370636   
C11      C      0.851650000000     0.994140000000     0.496980000000     0.374911   
C12      C      0.986310000000     0.136940000000     0.501860000000     0.372118   
C13      C      0.000560000000     0.351170000000     0.994320000000     0.365493   
C14      C      0.002460000000     0.494780000000     0.140900000000     0.368707   
C15      C      0.143600000000     0.495020000000     0.001990000000     0.371235   
C16      C      0.997100000000     0.636310000000     0.993580000000     0.366792   
C17      C      0.855540000000     0.490310000000     0.003990000000     0.371367   
C18      C      0.999320000000     0.495090000000     0.854310000000     0.370082   
C19      C      0.988060000000     0.636210000000     0.501450000000     0.372372   
C20      C      0.004480000000     0.494290000000     0.354530000000     0.374191   
C21      C      0.138200000000     0.489890000000     0.495250000000     0.369054   
C22      C      0.982810000000     0.351290000000     0.502130000000     0.369413   
C23      C      0.851100000000     0.497550000000     0.492520000000     0.373096   
C24      C      0.998240000000     0.498270000000     0.640770000000     0.376405   
C25      C      0.358020000000     0.990380000000     0.000050000000     0.372216   
C26      C      0.496620000000     0.991410000000     0.141980000000     0.37217    
C27      C      0.507810000000     0.848740000000     0.996140000000     0.374899   
C28      C      0.641610000000     0.997370000000     0.999310000000     0.370954   
C29      C      0.500510000000     0.136180000000     0.997600000000     0.374181   
C30      C      0.494430000000     0.992580000000     0.854280000000     0.371357   
C31      C      0.351990000000     0.996350000000     0.496570000000     0.370049   
C32      C      0.493280000000     0.990960000000     0.355370000000     0.376326   
C33      C      0.502830000000     0.138130000000     0.497840000000     0.372221   
C34      C      0.637990000000     0.993530000000     0.497590000000     0.369352   
C35      C      0.498110000000     0.851800000000     0.502430000000     0.372431   
C36      C      0.488470000000     0.994910000000     0.641230000000     0.376565   
C37      C      0.356900000000     0.494930000000     0.003370000000     0.37567    
C38      C      0.502710000000     0.350100000000     0.999790000000     0.372313   
C39      C      0.495810000000     0.494280000000     0.855900000000     0.371436   
C40      C      0.641730000000     0.487830000000     0.003590000000     0.373512   
C41      C      0.495820000000     0.493330000000     0.144070000000     0.374653   
C42      C      0.504710000000     0.634990000000     0.999470000000     0.371641   
C43      C      0.352170000000     0.488960000000     0.495350000000     0.375452   
C44      C      0.506920000000     0.351890000000     0.500810000000     0.372565   
C45      C      0.488670000000     0.495250000000     0.356990000000     0.379777   
C46      C      0.637490000000     0.501920000000     0.494920000000     0.373579   
C47      C      0.489290000000     0.493850000000     0.642880000000     0.376351   
C48      C      0.493700000000     0.638180000000     0.505490000000     0.377845   
C49      C      0.498270000000     0.449680000000     0.775700000000     0.039421   
C50      C      0.483810000000     0.539560000000     0.777070000000     0.0606972  
C51      C      0.492860000000     0.449650000000     0.721970000000     0.0338197  
C52      C      0.481930000000     0.540590000000     0.722730000000    -0.00329917 
C53      C      0.470340000000     0.590880000000     0.697190000000     0.303032   
C54      C      0.497610000000     0.538710000000     0.223890000000     0.0400268  
C55      C      0.483630000000     0.448740000000     0.223180000000     0.06255    
C56      C      0.492160000000     0.539070000000     0.277590000000     0.0357845  
C57      C      0.481160000000     0.448150000000     0.277420000000    -0.00150725 
C58      C      0.468640000000     0.398180000000     0.303100000000     0.304734   
C59      C      0.533150000000     0.771370000000     0.530270000000     0.039401   
C60      C      0.457030000000     0.773120000000     0.480190000000     0.059371   
C61      C      0.530960000000     0.717580000000     0.531550000000     0.0338832  
C62      C      0.453070000000     0.719370000000     0.483260000000    -0.00251976 
C63      C      0.403700000000     0.696510000000     0.464640000000     0.306528   
C64      C      0.472070000000     0.218570000000     0.528850000000     0.039057   
C65      C      0.543580000000     0.216760000000     0.472460000000     0.0597486  
C66      C      0.474200000000     0.272060000000     0.530030000000     0.0305453  
C67      C      0.547200000000     0.270890000000     0.474720000000    -0.00504303 
C68      C      0.593260000000     0.294480000000     0.449880000000     0.30672    
C69      C      0.470900000000     0.715290000000     0.971000000000     0.0402018  
C70      C      0.546380000000     0.713850000000     0.022000000000     0.0605248  
C71      C      0.472710000000     0.768870000000     0.969660000000     0.0326972  
C72      C      0.549600000000     0.767960000000     0.019500000000    -0.00316002 
C73      C      0.597650000000     0.791880000000     0.040050000000     0.306153   
C74      C      0.466610000000     0.216470000000     0.026340000000     0.0403395  
C75      C      0.539390000000     0.215160000000     0.971570000000     0.0619333  
C76      C      0.468040000000     0.270140000000     0.027030000000     0.0319286  
C77      C      0.542690000000     0.269150000000     0.973890000000    -0.0051099  
C78      C      0.589770000000     0.292560000000     0.950800000000     0.304433   
C79      C      0.497000000000     0.037900000000     0.774490000000     0.040784   
C80      C      0.481630000000     0.948180000000     0.775050000000     0.0610593  
C81      C      0.491840000000     0.038430000000     0.720740000000     0.0340096  
C82      C      0.480030000000     0.947610000000     0.720640000000    -0.00374779 
C83      C      0.468050000000     0.897750000000     0.694380000000     0.304615   
C84      C      0.486350000000     0.034710000000     0.222110000000     0.0414118  
C85      C      0.502350000000     0.945110000000     0.221100000000     0.0615558  
C86      C      0.488090000000     0.034410000000     0.275990000000     0.035152   
C87      C      0.500780000000     0.943730000000     0.275540000000    -0.00208777 
C88      C      0.512050000000     0.893590000000     0.301410000000     0.305139   
C89      C      0.771170000000     0.494880000000     0.537450000000     0.043175   
C90      C      0.771610000000     0.507930000000     0.447120000000     0.0641825  
C91      C      0.717450000000     0.499020000000     0.537910000000     0.0361575  
C92      C      0.717150000000     0.509480000000     0.446710000000    -0.0018341  
C93      C      0.691350000000     0.521700000000     0.396640000000     0.305413   
C94      C      0.218870000000     0.533570000000     0.498520000000     0.041997   
C95      C      0.217310000000     0.443180000000     0.488670000000     0.06095    
C96      C      0.272740000000     0.532960000000     0.495960000000     0.0340748  
C97      C      0.271870000000     0.441750000000     0.489080000000    -0.00278827 
C98      C      0.297440000000     0.391060000000     0.479910000000     0.304752   
C99      C      0.775120000000     0.495830000000     0.960150000000     0.0406003  
C100     C      0.776350000000     0.478850000000     0.049800000000     0.0618819  
C101     C      0.721340000000     0.492310000000     0.960090000000     0.035523   
C102     C      0.721830000000     0.478110000000     0.050770000000    -0.000660375
C103     C      0.696350000000     0.464340000000     0.100600000000     0.303796   
C104     C      0.224080000000     0.489650000000     0.958570000000     0.0389925  
C105     C      0.222350000000     0.502050000000     0.049040000000     0.0602515  
C106     C      0.277860000000     0.492550000000     0.959140000000     0.03259    
C107     C      0.276840000000     0.501350000000     0.050590000000    -0.00406467 
C108     C      0.302510000000     0.510620000000     0.101430000000     0.304208   
C109     C      0.043060000000     0.487360000000     0.773680000000     0.0394489  
C110     C      0.954360000000     0.508770000000     0.775460000000     0.0607104  
C111     C      0.042960000000     0.491470000000     0.719770000000     0.0334219  
C112     C      0.953020000000     0.509850000000     0.721080000000    -0.00328086 
C113     C      0.903660000000     0.525760000000     0.695760000000     0.305336   
C114     C      0.001850000000     0.449950000000     0.221160000000     0.039897   
C115     C      0.010490000000     0.540500000000     0.220190000000     0.0614393  
C116     C      0.005780000000     0.450140000000     0.275030000000     0.0345713  
C117     C      0.011680000000     0.541450000000     0.274580000000    -0.00287509 
C118     C      0.021130000000     0.592120000000     0.300110000000     0.305318   
C119     C      0.021730000000     0.769860000000     0.531080000000     0.0387044  
C120     C      0.949410000000     0.771230000000     0.475760000000     0.0599416  
C121     C      0.020400000000     0.716140000000     0.531710000000     0.032951   
C122     C      0.946460000000     0.717070000000     0.477680000000    -0.00434688 
C123     C      0.899690000000     0.693280000000     0.454310000000     0.307098   
C124     C      0.016540000000     0.217950000000     0.471780000000     0.0396319  
C125     C      0.947530000000     0.215480000000     0.531090000000     0.0610571  
C126     C      0.014790000000     0.271500000000     0.471860000000     0.0312791  
C127     C      0.944350000000     0.269790000000     0.530320000000    -0.0045062  
C128     C      0.899950000000     0.293190000000     0.558120000000     0.305621   
C129     C      0.718430000000     0.987130000000     0.541470000000     0.0401297  
C130     C      0.717060000000     0.000760000000     0.451220000000     0.061036   
C131     C      0.772260000000     0.989970000000     0.541050000000     0.0339726  
C132     C      0.771460000000     0.001080000000     0.449910000000    -0.00300277 
C133     C      0.796830000000     0.013120000000     0.399560000000     0.305721   
C134     C      0.271350000000     0.039580000000     0.505190000000     0.0404923  
C135     C      0.273110000000     0.950710000000     0.485720000000     0.0611384  
C136     C      0.217430000000     0.039050000000     0.502480000000     0.0353104  
C137     C      0.218720000000     0.949040000000     0.485930000000    -0.00176915 
C138     C      0.193370000000     0.899460000000     0.471380000000     0.30512    
C139     C      0.041510000000     0.716440000000     0.997850000000     0.039127   
C140     C      0.950910000000     0.715490000000     0.987390000000     0.0619591  
C141     C      0.041120000000     0.770290000000     0.996570000000     0.0337988  
C142     C      0.949660000000     0.769660000000     0.991010000000    -0.0030927  
C143     C      0.898670000000     0.795200000000     0.985730000000     0.300555   
C144     C      0.044280000000     0.270620000000     0.988420000000     0.0394785  
C145     C      0.954090000000     0.272580000000     0.002120000000     0.0610754  
C146     C      0.043760000000     0.216920000000     0.993460000000     0.0353001  
C147     C      0.952540000000     0.218330000000     0.003660000000    -0.00179312 
C148     C      0.901790000000     0.193310000000     0.014780000000     0.305382   
C149     C      0.775240000000     0.963730000000     0.030440000000     0.0394148  
C150     C      0.777100000000     0.031240000000     0.969480000000     0.0601478  
C151     C      0.721390000000     0.965440000000     0.030710000000     0.0319476  
C152     C      0.722910000000     0.034570000000     0.970780000000    -0.00347594 
C153     C      0.699320000000     0.079470000000     0.943910000000     0.307548   
C154     C      0.277090000000     0.956640000000     0.972220000000     0.039025   
C155     C      0.279330000000     0.029170000000     0.027050000000     0.0601842  
C156     C      0.223270000000     0.958810000000     0.971580000000     0.0315215  
C157     C      0.225280000000     0.032980000000     0.025120000000    -0.00454285 
C158     C      0.202200000000     0.080050000000     0.048460000000     0.306815   
C159     C      0.032410000000     0.961510000000     0.722860000000     0.0395889  
C160     C      0.976860000000     0.033460000000     0.721260000000     0.0611332  
C161     C      0.032940000000     0.963230000000     0.776820000000     0.0321501  
C162     C      0.979120000000     0.037130000000     0.775320000000    -0.00356196 
C163     C      0.956160000000     0.084310000000     0.798510000000     0.306462   
C164     C      0.970690000000     0.961670000000     0.222670000000     0.0405115  
C165     C      0.038750000000     0.021940000000     0.221120000000     0.0605227  
C166     C      0.972160000000     0.961410000000     0.276570000000     0.0319068  
C167     C      0.042010000000     0.020430000000     0.275430000000    -0.00342658 
C168     C      0.086910000000     0.047320000000     0.299080000000     0.304713   
H1       H      0.496920000000     0.413270000000     0.701570000000     0.0454773  
H2       H      0.504810000000     0.413170000000     0.795130000000     0.0471668  
H3       H      0.478870000000     0.575380000000     0.798280000000     0.0537122  
H4       H      0.479170000000     0.668510000000     0.703610000000     0.197575   
H5       H      0.496200000000     0.575610000000     0.297700000000     0.0511476  
H6       H      0.504070000000     0.575110000000     0.204240000000     0.0491595  
H7       H      0.478870000000     0.412690000000     0.202320000000     0.0565011  
H8       H      0.478060000000     0.320520000000     0.298210000000     0.196745   
H9       H      0.561910000000     0.697590000000     0.551560000000     0.0532896  
H10      H      0.565000000000     0.790290000000     0.549920000000     0.0503493  
H11      H      0.426200000000     0.794070000000     0.460850000000     0.056224   
H12      H      0.352150000000     0.696510000000     0.405300000000     0.197376   
H13      H      0.445010000000     0.291470000000     0.553070000000     0.0522508  
H14      H      0.441960000000     0.199910000000     0.551320000000     0.0483383  
H15      H      0.572320000000     0.195660000000     0.450310000000     0.0533546  
H16      H      0.636530000000     0.295260000000     0.384260000000     0.199273   
H17      H      0.441850000000     0.788310000000     0.948960000000     0.0511686  
H18      H      0.439330000000     0.696420000000     0.950840000000     0.0495456  
H19      H      0.576880000000     0.692920000000     0.041850000000     0.0539087  
H20      H      0.656600000000     0.840880000000     0.022940000000     0.191445   
H21      H      0.438090000000     0.289610000000     0.048990000000     0.0522936  
H22      H      0.436210000000     0.197460000000     0.048100000000     0.0487077  
H23      H      0.568890000000     0.194330000000     0.950190000000     0.0477103  
H24      H      0.634690000000     0.294180000000     0.886320000000     0.19669    
H25      H      0.496380000000     0.074940000000     0.700700000000     0.0454488  
H26      H      0.503870000000     0.074180000000     0.794240000000     0.0471726  
H27      H      0.476270000000     0.912220000000     0.795930000000     0.0528131  
H28      H      0.431530000000     0.864960000000     0.632950000000     0.193037   
H29      H      0.482490000000     0.070700000000     0.296190000000     0.0466367  
H30      H      0.480600000000     0.071330000000     0.202630000000     0.0477553  
H31      H      0.509290000000     0.909540000000     0.200030000000     0.0547444  
H32      H      0.549500000000     0.859680000000     0.361650000000     0.195246   
H33      H      0.697770000000     0.494890000000     0.574790000000     0.0503911  
H34      H      0.790790000000     0.489260000000     0.574140000000     0.0514469  
H35      H      0.792390000000     0.512900000000     0.410950000000     0.0554098  
H36      H      0.695660000000     0.511330000000     0.318800000000     0.19526    
H37      H      0.292960000000     0.569520000000     0.499130000000     0.0566362  
H38      H      0.199680000000     0.570580000000     0.502310000000     0.0499198  
H39      H      0.196090000000     0.407270000000     0.484510000000     0.0520647  
H40      H      0.357180000000     0.355330000000     0.443370000000     0.197038   
H41      H      0.701310000000     0.498130000000     0.923630000000     0.0488749  
H42      H      0.794430000000     0.502830000000     0.923540000000     0.0497135  
H43      H      0.797460000000     0.472120000000     0.085490000000     0.0548096  
H44      H      0.701760000000     0.471430000000     0.178740000000     0.195714   
H45      H      0.298280000000     0.488710000000     0.922620000000     0.0449769  
H46      H      0.204870000000     0.484930000000     0.921540000000     0.0452457  
H47      H      0.200940000000     0.507110000000     0.084840000000     0.0522394  
H48      H      0.363570000000     0.545140000000     0.136950000000     0.193284   
H49      H      0.078830000000     0.484170000000     0.699180000000     0.0456545  
H50      H      0.079260000000     0.478400000000     0.792920000000     0.0457277  
H51      H      0.919090000000     0.517000000000     0.796750000000     0.0527997  
H52      H      0.872670000000     0.566530000000     0.636130000000     0.194528   
H53      H      0.003260000000     0.413460000000     0.295130000000     0.0479456  
H54      H      0.998020000000     0.413090000000     0.201680000000     0.0487077  
H55      H      0.013750000000     0.576660000000     0.199250000000     0.0549618  
H56      H      0.007260000000     0.669090000000     0.294860000000     0.19792    
H57      H      0.050200000000     0.696670000000     0.553870000000     0.0523823  
H58      H      0.051930000000     0.788790000000     0.553170000000     0.0505261  
H59      H      0.919930000000     0.792120000000     0.454380000000     0.0537015  
H60      H      0.853510000000     0.693300000000     0.390700000000     0.197877   
H61      H      0.043140000000     0.291050000000     0.447930000000     0.0521228  
H62      H      0.045530000000     0.199600000000     0.447650000000     0.0497174  
H63      H      0.919690000000     0.194110000000     0.554130000000     0.0540441  
H64      H      0.860790000000     0.293360000000     0.626270000000     0.197532   
H65      H      0.792470000000     0.985280000000     0.577580000000     0.0490185  
H66      H      0.699180000000     0.981700000000     0.578370000000     0.0488522  
H67      H      0.695950000000     0.006350000000     0.415320000000     0.0548655  
H68      H      0.854850000000     0.053610000000     0.365380000000     0.193797   
H69      H      0.196910000000     0.074910000000     0.509470000000     0.0466683  
H70      H      0.290540000000     0.075980000000     0.512920000000     0.0468756  
H71      H      0.294380000000     0.915470000000     0.477770000000     0.0540164  
H72      H      0.133860000000     0.867510000000     0.431160000000     0.194      
H73      H      0.077850000000     0.790350000000     0.999630000000     0.0456499  
H74      H      0.078520000000     0.697000000000     0.001250000000     0.0466932  
H75      H      0.914660000000     0.694740000000     0.983110000000     0.0491908  
H76      H      0.843780000000     0.836230000000     0.024050000000     0.190985   
H77      H      0.080150000000     0.196370000000     0.989740000000     0.044578   
H78      H      0.081150000000     0.289720000000     0.982530000000     0.0463738  
H79      H      0.918280000000     0.293940000000     0.007010000000     0.0534717  
H80      H      0.866560000000     0.134670000000     0.053310000000     0.19415    
H81      H      0.701520000000     0.937660000000     0.055000000000     0.0490068  
H82      H      0.794100000000     0.935430000000     0.054920000000     0.0464164  
H83      H      0.798210000000     0.058850000000     0.945960000000     0.0560619  
H84      H      0.650940000000     0.140540000000     0.952980000000     0.19573    
H85      H      0.203230000000     0.929270000000     0.949630000000     0.0496719  
H86      H      0.295790000000     0.926210000000     0.950330000000     0.0473845  
H87      H      0.300550000000     0.058470000000     0.048320000000     0.052043   
H88      H      0.156190000000     0.141950000000     0.034080000000     0.192566   
H89      H      0.055110000000     0.933730000000     0.796660000000     0.0509875  
H90      H      0.054390000000     0.931350000000     0.703840000000     0.0481239  
H91      H      0.955410000000     0.062790000000     0.700260000000     0.0543052  
H92      H      0.892150000000     0.129750000000     0.799290000000     0.199663   
H93      H      0.944060000000     0.937260000000     0.296170000000     0.053924   
H94      H      0.942200000000     0.937440000000     0.203730000000     0.0506575  
H95      H      0.066600000000     0.045300000000     0.200120000000     0.0565059  
H96      H      0.127550000000     0.114370000000     0.299260000000     0.196125   
N1       N      0.493030000000     0.494500000000     0.803040000000    -0.170169   
N2       N      0.486740000000     0.494980000000     0.695600000000    -0.154284   
N3       N      0.492790000000     0.493640000000     0.196900000000    -0.170052   
N4       N      0.486040000000     0.493900000000     0.304270000000    -0.153781   
N5       N      0.496620000000     0.798970000000     0.503920000000    -0.17051    
N6       N      0.491890000000     0.691250000000     0.507070000000    -0.152294   
N7       N      0.506090000000     0.190910000000     0.499430000000    -0.170481   
N8       N      0.510550000000     0.298810000000     0.502060000000    -0.151918   
N9       N      0.507180000000     0.687810000000     0.997810000000    -0.169569   
N10      N      0.510960000000     0.795670000000     0.994860000000    -0.15198    
N11      N      0.501890000000     0.189040000000     0.998180000000    -0.171061   
N12      N      0.505250000000     0.296960000000     0.000280000000    -0.151274   
N13      N      0.491290000000     0.992900000000     0.801430000000    -0.169871   
N14      N      0.485490000000     0.993380000000     0.693940000000    -0.153702   
N15      N      0.494810000000     0.990350000000     0.194880000000    -0.169679   
N16      N      0.494060000000     0.989160000000     0.302560000000    -0.153488   
N17      N      0.798150000000     0.499770000000     0.492200000000    -0.167776   
N18      N      0.690360000000     0.504380000000     0.492730000000    -0.151897   
N19      N      0.191240000000     0.488820000000     0.494220000000    -0.168716   
N20      N      0.299240000000     0.487330000000     0.492990000000    -0.151179   
N21      N      0.802540000000     0.488560000000     0.004820000000    -0.168736   
N22      N      0.694640000000     0.485340000000     0.005280000000    -0.151789   
N23      N      0.196500000000     0.495360000000     0.003320000000    -0.170215   
N24      N      0.304130000000     0.496740000000     0.004880000000    -0.153503   
N25      N      0.998930000000     0.496720000000     0.801330000000    -0.169287   
N26      N      0.997910000000     0.500770000000     0.693600000000    -0.153001   
N27      N      0.004580000000     0.495060000000     0.193890000000    -0.168733   
N28      N      0.008540000000     0.495660000000     0.301730000000    -0.153073   
N29      N      0.986950000000     0.797390000000     0.502290000000    -0.16914    
N30      N      0.984040000000     0.689270000000     0.503920000000    -0.150814   
N31      N      0.983430000000     0.189850000000     0.501770000000    -0.169192   
N32      N      0.979690000000     0.298060000000     0.501640000000    -0.150815   
N33      N      0.690960000000     0.993430000000     0.496740000000    -0.169231   
N34      N      0.798760000000     0.995510000000     0.495500000000    -0.15315    
N35      N      0.299010000000     0.995600000000     0.496020000000    -0.16919    
N36      N      0.191220000000     0.993840000000     0.494610000000    -0.152637   
N37      N      0.996510000000     0.689180000000     0.992600000000    -0.168311   
N38      N      0.995400000000     0.796890000000     0.994820000000    -0.152254   
N39      N      0.999660000000     0.298310000000     0.994140000000    -0.167894   
N40      N      0.998110000000     0.190840000000     0.999680000000    -0.152376   
N41      N      0.803020000000     0.996240000000     0.999460000000    -0.170377   
N42      N      0.694840000000     0.999890000000     0.000310000000    -0.151096   
N43      N      0.305020000000     0.991610000000     0.000170000000    -0.170381   
N44      N      0.196970000000     0.996260000000     0.998420000000    -0.152877   
N45      N      0.003440000000     0.995900000000     0.695240000000    -0.170252   
N46      N      0.005350000000     0.999940000000     0.803470000000    -0.15198    
N47      N      0.003390000000     0.992490000000     0.194960000000    -0.168875   
N48      N      0.006730000000     0.991490000000     0.303440000000    -0.151747   
O1       O      0.999950000000     0.993660000000     0.999230000000    -0.369043   
O2       O      0.971780000000     0.961900000000     0.117740000000    -0.29176    
O3       O      0.118350000000     0.023780000000     0.029210000000    -0.286874   
O4       O      0.031950000000     0.873570000000     0.970570000000    -0.292986   
O5       O      0.030070000000     0.024740000000     0.116860000000    -0.291796   
O6       O      0.964580000000     0.874560000000     0.023590000000    -0.279472   
O7       O      0.119710000000     0.963900000000     0.968840000000    -0.297238   
O8       O      0.972740000000     0.026170000000     0.882010000000    -0.28265    
O9       O      0.033560000000     0.114250000000     0.025560000000    -0.288901   
O10      O      0.032060000000     0.964880000000     0.880750000000    -0.293493   
O11      O      0.965860000000     0.113250000000     0.973020000000    -0.279137   
O12      O      0.881120000000     0.023400000000     0.968030000000    -0.294074   
O13      O      0.880050000000     0.965400000000     0.030680000000    -0.294952   
O14      O      0.995010000000     0.993520000000     0.499670000000    -0.369766   
O15      O      0.028810000000     0.025990000000     0.382810000000    -0.279867   
O16      O      0.959140000000     0.875600000000     0.470970000000    -0.29301    
O17      O      0.114560000000     0.958390000000     0.520650000000    -0.284411   
O18      O      0.972770000000     0.961850000000     0.380000000000    -0.292667   
O19      O      0.113620000000     0.031590000000     0.476150000000    -0.287402   
O20      O      0.022480000000     0.873940000000     0.528580000000    -0.295544   
O21      O      0.969200000000     0.022320000000     0.618270000000    -0.297931   
O22      O      0.876670000000     0.971500000000     0.461000000000    -0.284304   
O23      O      0.030760000000     0.962870000000     0.617310000000    -0.294608   
O24      O      0.875310000000     0.014870000000     0.534960000000    -0.292621   
O25      O      0.956710000000     0.110570000000     0.531200000000    -0.292449   
O26      O      0.019040000000     0.114300000000     0.472720000000    -0.296922   
O27      O      0.999760000000     0.493570000000     0.997510000000    -0.369295   
O28      O      0.035630000000     0.375520000000     0.969260000000    -0.289694   
O29      O      0.981810000000     0.456740000000     0.117250000000    -0.292404   
O30      O      0.117940000000     0.519970000000     0.035950000000    -0.294074   
O31      O      0.966730000000     0.375540000000     0.020750000000    -0.292436   
O32      O      0.120430000000     0.470310000000     0.966240000000    -0.297768   
O33      O      0.021510000000     0.532520000000     0.115530000000    -0.293517   
O34      O      0.961110000000     0.610850000000     0.971170000000    -0.290551   
O35      O      0.881730000000     0.467190000000     0.038890000000    -0.291367   
O36      O      0.033250000000     0.612980000000     0.017830000000    -0.293323   
O37      O      0.878390000000     0.514490000000     0.967660000000    -0.295667   
O38      O      0.965930000000     0.521140000000     0.879640000000    -0.294547   
O39      O      0.032980000000     0.467740000000     0.877880000000    -0.293944   
O40      O      0.994560000000     0.493730000000     0.497680000000    -0.369584   
O41      O      0.020760000000     0.612570000000     0.530030000000    -0.29       
O42      O      0.976980000000     0.528020000000     0.377500000000    -0.283141   
O43      O      0.112390000000     0.453190000000     0.474670000000    -0.291507   
O44      O      0.960860000000     0.610840000000     0.469230000000    -0.279709   
O45      O      0.115000000000     0.527640000000     0.516920000000    -0.292679   
O46      O      0.026460000000     0.458200000000     0.379980000000    -0.290557   
O47      O      0.955850000000     0.378240000000     0.533510000000    -0.278371   
O48      O      0.876990000000     0.518340000000     0.455940000000    -0.287469   
O49      O      0.014330000000     0.373650000000     0.471510000000    -0.298466   
O50      O      0.874180000000     0.475500000000     0.530090000000    -0.288842   
O51      O      0.961860000000     0.474470000000     0.617630000000    -0.284693   
O52      O      0.034530000000     0.520060000000     0.615350000000    -0.29035    
O53      O      0.499700000000     0.992360000000     0.998060000000    -0.371634   
O54      O      0.381910000000     0.958540000000     0.970870000000    -0.297244   
O55      O      0.472250000000     0.026430000000     0.117380000000    -0.294912   
O56      O      0.536830000000     0.874710000000     0.026140000000    -0.284558   
O57      O      0.383030000000     0.022040000000     0.028370000000    -0.298416   
O58      O      0.474210000000     0.871900000000     0.968490000000    -0.2971     
O59      O      0.523030000000     0.957620000000     0.117760000000    -0.293267   
O60      O      0.616320000000     0.021050000000     0.964220000000    -0.282526   
O61      O      0.468860000000     0.112180000000     0.026700000000    -0.297916   
O62      O      0.617730000000     0.970150000000     0.032940000000    -0.29256    
O63      O      0.531260000000     0.111190000000     0.968370000000    -0.296475   
O64      O      0.521600000000     0.026510000000     0.877500000000    -0.292668   
O65      O      0.470020000000     0.958280000000     0.879860000000    -0.295564   
O66      O      0.495150000000     0.995040000000     0.498600000000    -0.370718   
O67      O      0.375900000000     0.030900000000     0.522470000000    -0.292472   
O68      O      0.467830000000     0.957300000000     0.380840000000    -0.283053   
O69      O      0.533110000000     0.112300000000     0.468720000000    -0.295505   
O70      O      0.376980000000     0.962080000000     0.471450000000    -0.294258   
O71      O      0.469320000000     0.115090000000     0.525650000000    -0.300129   
O72      O      0.518480000000     0.026370000000     0.378450000000    -0.292625   
O73      O      0.613980000000     0.972320000000     0.535200000000    -0.293772   
O74      O      0.465380000000     0.875960000000     0.474780000000    -0.297618   
O75      O      0.613130000000     0.015290000000     0.460910000000    -0.292099   
O76      O      0.531140000000     0.876600000000     0.529350000000    -0.292664   
O77      O      0.517260000000     0.962510000000     0.617870000000    -0.285893   
O78      O      0.463540000000     0.029390000000     0.616300000000    -0.290843   
O79      O      0.499310000000     0.492690000000     0.000190000000    -0.371136   
O80      O      0.380910000000     0.521210000000     0.969210000000    -0.293673   
O81      O      0.469750000000     0.373370000000     0.028230000000    -0.293686   
O82      O      0.522350000000     0.459840000000     0.879040000000    -0.294861   
O83      O      0.381290000000     0.466450000000     0.035430000000    -0.284553   
O84      O      0.471390000000     0.528390000000     0.881640000000    -0.297561   
O85      O      0.532360000000     0.376070000000     0.970360000000    -0.283413   
O86      O      0.617220000000     0.511360000000     0.039440000000    -0.280649   
O87      O      0.473570000000     0.457480000000     0.118830000000    -0.293178   
O88      O      0.617690000000     0.468080000000     0.965150000000    -0.286103   
O89      O      0.520500000000     0.528810000000     0.120470000000    -0.290998   
O90      O      0.537380000000     0.609660000000     0.026450000000    -0.29405    
O91      O      0.469780000000     0.611450000000     0.973810000000    -0.295766   
O92      O      0.494980000000     0.494840000000     0.500070000000    -0.369868   
O93      O      0.376190000000     0.525210000000     0.472120000000    -0.283407   
O94      O      0.473280000000     0.374510000000     0.528840000000    -0.29636    
O95      O      0.515730000000     0.461620000000     0.380540000000    -0.282825   
O96      O      0.376760000000     0.455290000000     0.521800000000    -0.279071   
O97      O      0.465370000000     0.530840000000     0.381810000000    -0.28811    
O98      O      0.535060000000     0.378360000000     0.470330000000    -0.279234   
O99      O      0.613720000000     0.521940000000     0.533370000000    -0.290941   
O100     O      0.463050000000     0.460450000000     0.617810000000    -0.290279   
O101     O      0.612770000000     0.477830000000     0.459640000000    -0.278459   
O102     O      0.518840000000     0.525620000000     0.619620000000    -0.285344   
O103     O      0.525990000000     0.613590000000     0.533510000000    -0.288646   
O104     O      0.463960000000     0.613590000000     0.475100000000    -0.285868   
O105     O      0.486590000000     0.635330000000     0.719110000000    -0.32686    
O106     O      0.444900000000     0.592450000000     0.657330000000    -0.215664   
O107     O      0.486030000000     0.353500000000     0.282580000000    -0.324976   
O108     O      0.441380000000     0.397100000000     0.341760000000    -0.214945   
O109     O      0.384620000000     0.710180000000     0.417960000000    -0.322922   
O110     O      0.379130000000     0.667240000000     0.492430000000    -0.213019   
O111     O      0.606230000000     0.281090000000     0.401070000000    -0.325089   
O112     O      0.620860000000     0.324060000000     0.474290000000    -0.210593   
O113     O      0.624930000000     0.825240000000     0.010560000000    -0.313461   
O114     O      0.613750000000     0.779730000000     0.082840000000    -0.220937   
O115     O      0.603690000000     0.280210000000     0.901970000000    -0.32726    
O116     O      0.617340000000     0.320880000000     0.976700000000    -0.206548   
O117     O      0.439780000000     0.896960000000     0.650400000000    -0.319797   
O118     O      0.482640000000     0.857090000000     0.713400000000    -0.226256   
O119     O      0.541590000000     0.891930000000     0.344520000000    -0.317098   
O120     O      0.495920000000     0.853400000000     0.282630000000    -0.220032   
O121     O      0.711300000000     0.503470000000     0.351900000000    -0.32557    
O122     O      0.653260000000     0.549640000000     0.395470000000    -0.217139   
O123     O      0.340230000000     0.387950000000     0.450020000000    -0.313089   
O124     O      0.278750000000     0.351710000000     0.498090000000    -0.226947   
O125     O      0.717170000000     0.480340000000     0.145800000000    -0.325619   
O126     O      0.657720000000     0.437130000000     0.101100000000    -0.210542   
O127     O      0.346520000000     0.538610000000     0.104240000000    -0.318899   
O128     O      0.282870000000     0.494150000000     0.141180000000    -0.223064   
O129     O      0.904320000000     0.555700000000     0.652960000000    -0.317806   
O130     O      0.862200000000     0.512960000000     0.714580000000    -0.226047   
O131     O      0.001260000000     0.635640000000     0.279340000000    -0.325756   
O132     O      0.048180000000     0.594890000000     0.338830000000    -0.216046   
O133     O      0.884280000000     0.707620000000     0.406490000000    -0.325338   
O134     O      0.873770000000     0.662550000000     0.479140000000    -0.214123   
O135     O      0.890030000000     0.279400000000     0.607530000000    -0.3246     
O136     O      0.870820000000     0.322840000000     0.535650000000    -0.210136   
O137     O      0.838080000000     0.045080000000     0.397750000000    -0.318044   
O138     O      0.779250000000     0.995440000000     0.359370000000    -0.223871   
O139     O      0.150650000000     0.899330000000     0.441240000000    -0.31421    
O140     O      0.212200000000     0.858500000000     0.485350000000    -0.224573   
O141     O      0.877230000000     0.819640000000     0.026580000000    -0.310338   
O142     O      0.875170000000     0.792400000000     0.944790000000    -0.22211    
O143     O      0.899200000000     0.151270000000     0.045560000000    -0.318438   
O144     O      0.861950000000     0.211770000000     0.997240000000    -0.22201    
O145     O      0.666060000000     0.110600000000     0.969430000000    -0.314256   
O146     O      0.711730000000     0.089610000000     0.899400000000    -0.219622   
O147     O      0.171140000000     0.110790000000     0.019870000000    -0.315864   
O148     O      0.213100000000     0.092170000000     0.092860000000    -0.222852   
O149     O      0.907700000000     0.098750000000     0.785380000000    -0.323426   
O150     O      0.981850000000     0.111390000000     0.827510000000    -0.21148    
O151     O      0.098010000000     0.096270000000     0.285100000000    -0.324262   
O152     O      0.115290000000     0.024470000000     0.329210000000    -0.208183   
Zn1      Zn     0.955530000000     0.949990000000     0.041890000000     0.460034   
Zn2      Zn     0.043680000000     0.038190000000     0.041440000000     0.46566    
Zn3      Zn     0.044340000000     0.949640000000     0.956390000000     0.457524   
Zn4      Zn     0.956250000000     0.037700000000     0.956860000000     0.469655   
Zn5      Zn     0.037780000000     0.040380000000     0.459290000000     0.464688   
Zn6      Zn     0.951980000000     0.951740000000     0.454180000000     0.461662   
Zn7      Zn     0.039610000000     0.948470000000     0.540520000000     0.459887   
Zn8      Zn     0.950200000000     0.033870000000     0.544590000000     0.463511   
Zn9      Zn     0.045790000000     0.452480000000     0.953810000000     0.454447   
Zn10     Zn     0.958550000000     0.449730000000     0.042550000000     0.456717   
Zn11     Zn     0.041830000000     0.538660000000     0.040300000000     0.456606   
Zn12     Zn     0.952540000000     0.534120000000     0.955370000000     0.458361   
Zn13     Zn     0.040440000000     0.537280000000     0.538610000000     0.458764   
Zn14     Zn     0.953430000000     0.535960000000     0.451040000000     0.468331   
Zn15     Zn     0.035920000000     0.445980000000     0.457160000000     0.459866   
Zn16     Zn     0.948200000000     0.456110000000     0.543530000000     0.465687   
Zn17     Zn     0.457520000000     0.946410000000     0.955880000000     0.460548   
Zn18     Zn     0.457600000000     0.037070000000     0.041440000000     0.462982   
Zn19     Zn     0.543030000000     0.950080000000     0.042660000000     0.464009   
Zn20     Zn     0.540940000000     0.035980000000     0.952780000000     0.464298   
Zn21     Zn     0.451910000000     0.041300000000     0.539510000000     0.459292   
Zn22     Zn     0.452460000000     0.949350000000     0.457310000000     0.466095   
Zn23     Zn     0.538400000000     0.036160000000     0.452910000000     0.461728   
Zn24     Zn     0.538590000000     0.953040000000     0.543800000000     0.461219   
Zn25     Zn     0.456410000000     0.536990000000     0.957550000000     0.461752   
Zn26     Zn     0.456990000000     0.448420000000     0.043750000000     0.465335   
Zn27     Zn     0.541850000000     0.451070000000     0.954390000000     0.46392    
Zn28     Zn     0.542540000000     0.534420000000     0.045480000000     0.46269    
Zn29     Zn     0.451640000000     0.539830000000     0.458410000000     0.472076   
Zn30     Zn     0.452730000000     0.447770000000     0.541010000000     0.464308   
Zn31     Zn     0.538490000000     0.454360000000     0.454110000000     0.470779   
Zn32     Zn     0.537750000000     0.537360000000     0.545290000000     0.464832   


