data_structure

_audit_creation_method RASPA-1.0
_audit_creation_date 2023-5-23
_audit_author_name 'Poobodin Mano'

_cell_length_a    35.3733
_cell_length_b    35.0231
_cell_length_c    50.3775
_cell_angle_alpha 90
_cell_angle_beta  90.0005
_cell_angle_gamma 90
_cell_volume      62411.8

_symmetry_cell_setting          triclinic
_symmetry_space_group_name_Hall 'P 1'
_symmetry_space_group_name_H-M  'P 1'
_symmetry_Int_Tables_number     1

_symmetry_equiv_pos_as_xyz 'x,y,z'

loop_
_atom_site_label
_atom_site_type_symbol
_atom_site_fract_x
_atom_site_fract_y
_atom_site_fract_z
_atom_site_charge
C1       C      0.083550000000     0.083720000000     0.091190000000     0.364759   
C2       C      0.000650000000     0.002880000000     0.038850000000     0.361928   
C3       C      0.084900000000     0.941780000000     0.120170000000     0.36068    
C4       C      0.937140000000     0.939820000000     0.122220000000     0.357655   
C5       C      0.937140000000     0.091950000000     0.101340000000     0.365725   
C6       C      0.011330000000     0.027840000000     0.182010000000     0.360411   
C7       C      0.013210000000     0.031550000000     0.431270000000     0.359451   
C8       C      0.939430000000     0.087410000000     0.350070000000     0.369858   
C9       C      0.085460000000     0.079520000000     0.337730000000     0.370895   
C10      C      0.000610000000     0.001190000000     0.289990000000     0.360815   
C11      C      0.944060000000     0.939580000000     0.374390000000     0.370007   
C12      C      0.087350000000     0.943090000000     0.372240000000     0.370745   
C13      C      0.189490000000     0.186780000000     0.052700000000     0.363859   
C14      C      0.325710000000     0.190810000000     0.024040000000     0.37375    
C15      C      0.237750000000     0.271550000000     0.467640000000     0.370889   
C16      C      0.335550000000     0.335450000000     0.028600000000     0.367647   
C17      C      0.266440000000     0.268870000000     0.110350000000     0.371844   
C18      C      0.183090000000     0.338730000000     0.051140000000     0.361371   
C19      C      0.330230000000     0.195370000000     0.276170000000     0.361974   
C20      C      0.183520000000     0.180810000000     0.291550000000     0.368338   
C21      C      0.247460000000     0.254840000000     0.358740000000     0.36385    
C22      C      0.176570000000     0.336130000000     0.301600000000     0.371814   
C23      C      0.231810000000     0.263630000000     0.216840000000     0.369767   
C24      C      0.321030000000     0.333660000000     0.278890000000     0.367449   
C25      C      0.192920000000     0.840010000000     0.157600000000     0.360829   
C26      C      0.329780000000     0.840680000000     0.192250000000     0.365989   
C27      C      0.246730000000     0.754260000000     0.241860000000     0.364923   
C28      C      0.344010000000     0.695220000000     0.181220000000     0.363729   
C29      C      0.277160000000     0.768960000000     0.099610000000     0.366286   
C30      C      0.195130000000     0.690790000000     0.158680000000     0.368341   
C31      C      0.192340000000     0.842710000000     0.412420000000     0.368027   
C32      C      0.195580000000     0.695400000000     0.407170000000     0.36906    
C33      C      0.275060000000     0.768220000000     0.349090000000     0.360801   
C34      C      0.332330000000     0.697430000000     0.441360000000     0.372752   
C35      C      0.250960000000     0.780460000000     0.992270000000     0.367741   
C36      C      0.343330000000     0.843970000000     0.426510000000     0.372811   
C37      C      0.439330000000     0.094680000000     0.992210000000     0.377478   
C38      C      0.514890000000     0.010610000000     0.051370000000     0.378127   
C39      C      0.442930000000     0.953230000000     0.463850000000     0.366799   
C40      C      0.589450000000     0.949550000000     0.470250000000     0.363176   
C41      C      0.589530000000     0.097880000000     0.991830000000     0.37766    
C42      C      0.519950000000     0.036410000000     0.409360000000     0.377916   
C43      C      0.437730000000     0.944000000000     0.224370000000     0.371995   
C44      C      0.515180000000     0.999720000000     0.303840000000     0.379944   
C45      C      0.591950000000     0.951000000000     0.218800000000     0.373326   
C46      C      0.582160000000     0.094370000000     0.245920000000     0.361095   
C47      C      0.441080000000     0.093410000000     0.244950000000     0.359575   
C48      C      0.509570000000     0.025160000000     0.160560000000     0.375952   
C49      C      0.694430000000     0.845380000000     0.184250000000     0.369959   
C50      C      0.830470000000     0.833800000000     0.154740000000     0.359746   
C51      C      0.762940000000     0.757020000000     0.240850000000     0.369235   
C52      C      0.825830000000     0.688410000000     0.159010000000     0.361965   
C53      C      0.738080000000     0.761350000000     0.096730000000     0.369581   
C54      C      0.675340000000     0.692930000000     0.179540000000     0.363788   
C55      C      0.843920000000     0.831140000000     0.411070000000     0.372199   
C56      C      0.824250000000     0.691230000000     0.397470000000     0.36974    
C57      C      0.775140000000     0.767270000000     0.990400000000     0.368653   
C58      C      0.694400000000     0.692170000000     0.432940000000     0.368586   
C59      C      0.746870000000     0.778850000000     0.349010000000     0.366923   
C60      C      0.690970000000     0.843520000000     0.430510000000     0.362323   
C61      C      0.832570000000     0.195160000000     0.060620000000     0.361304   
C62      C      0.780720000000     0.275110000000     0.473960000000     0.367651   
C63      C      0.698360000000     0.197720000000     0.026240000000     0.373097   
C64      C      0.686960000000     0.341830000000     0.034730000000     0.366089   
C65      C      0.836530000000     0.344570000000     0.055310000000     0.366705   
C66      C      0.750390000000     0.271080000000     0.117150000000     0.370396   
C67      C      0.840960000000     0.186320000000     0.300220000000     0.366767   
C68      C      0.691480000000     0.194690000000     0.281240000000     0.362789   
C69      C      0.766500000000     0.251920000000     0.365720000000     0.363376   
C70      C      0.698590000000     0.335250000000     0.284350000000     0.365941   
C71      C      0.787710000000     0.264680000000     0.223420000000     0.367851   
C72      C      0.840470000000     0.337770000000     0.311550000000     0.370962   
C73      C      0.440790000000     0.445190000000     0.999510000000     0.367544   
C74      C      0.502670000000     0.516970000000     0.417190000000     0.365917   
C75      C      0.434440000000     0.595520000000     0.482020000000     0.373831   
C76      C      0.585510000000     0.595290000000     0.473850000000     0.373787   
C77      C      0.584980000000     0.451200000000     0.999570000000     0.364579   
C78      C      0.510100000000     0.536810000000     0.059440000000     0.368709   
C79      C      0.434580000000     0.432510000000     0.247340000000     0.371626   
C80      C      0.585680000000     0.432570000000     0.249050000000     0.370654   
C81      C      0.510840000000     0.492480000000     0.164420000000     0.370119   
C82      C      0.582420000000     0.580610000000     0.222370000000     0.363063   
C83      C      0.507580000000     0.520740000000     0.307410000000     0.370674   
C84      C      0.438060000000     0.581390000000     0.220830000000     0.36289    
C85      C      0.085430000000     0.596690000000     0.116040000000     0.372812   
C86      C      0.083030000000     0.443010000000     0.095010000000     0.363323   
C87      C      0.024850000000     0.503560000000     0.176300000000     0.370932   
C88      C      0.939680000000     0.450950000000     0.089890000000     0.366283   
C89      C      0.017960000000     0.533860000000     0.035220000000     0.365271   
C90      C      0.937090000000     0.588520000000     0.123760000000     0.365204   
C91      C      0.085370000000     0.450370000000     0.342570000000     0.366703   
C92      C      0.017650000000     0.529510000000     0.282990000000     0.368772   
C93      C      0.938740000000     0.449940000000     0.346790000000     0.366686   
C94      C      0.934450000000     0.592850000000     0.362480000000     0.3758     
C95      C      0.084500000000     0.597920000000     0.369660000000     0.368953   
C96      C      0.010840000000     0.509850000000     0.427580000000     0.373949   
C97      C      0.000120000000     0.485780000000     0.218120000000     0.0327883  
C98      C      0.053730000000     0.525770000000     0.215350000000     0.0344212  
C99      C      0.050970000000     0.533980000000     0.242280000000     0.0330991  
C100     C      0.995930000000     0.495960000000     0.244830000000     0.0334458  
C101     C      0.039640000000     0.500670000000     0.996710000000     0.0308092  
C102     C      0.989120000000     0.544520000000     0.993530000000     0.0322078  
C103     C      0.986470000000     0.537070000000     0.466550000000     0.0345507  
C104     C      0.035420000000     0.491460000000     0.469740000000     0.0337055  
C105     C      0.507350000000     0.485180000000     0.375650000000     0.0321055  
C106     C      0.498880000000     0.551970000000     0.376600000000     0.0315607  
C107     C      0.501110000000     0.553460000000     0.348870000000     0.032696   
C108     C      0.509040000000     0.486600000000     0.348090000000     0.0319481  
C109     C      0.543720000000     0.523140000000     0.099180000000     0.0323412  
C110     C      0.477050000000     0.521310000000     0.099050000000     0.0322046  
C111     C      0.477350000000     0.506760000000     0.124780000000     0.0324602  
C112     C      0.544020000000     0.508550000000     0.124930000000     0.0324284  
C113     C      0.888640000000     0.358640000000     0.341380000000     0.0321027  
C114     C      0.862600000000     0.401980000000     0.310590000000     0.0323496  
C115     C      0.886570000000     0.430440000000     0.320210000000     0.0313727  
C116     C      0.913180000000     0.386990000000     0.350680000000     0.0319963  
C117     C      0.648980000000     0.409320000000     0.246440000000     0.0322098  
C118     C      0.606630000000     0.382280000000     0.277310000000     0.0318657  
C119     C      0.635180000000     0.358270000000     0.286750000000     0.031933   
C120     C      0.677660000000     0.385640000000     0.256120000000     0.0314965  
C121     C      0.805620000000     0.250390000000     0.433230000000     0.0322744  
C122     C      0.745980000000     0.280440000000     0.433810000000     0.0318586  
C123     C      0.741160000000     0.272740000000     0.406910000000     0.0315858  
C124     C      0.801100000000     0.243330000000     0.406020000000     0.031517   
C125     C      0.765680000000     0.302420000000     0.157680000000     0.0316052  
C126     C      0.762960000000     0.235160000000     0.156220000000     0.0318521  
C127     C      0.775540000000     0.233410000000     0.182410000000     0.0317745  
C128     C      0.778120000000     0.300670000000     0.183930000000     0.0317544  
C129     C      0.867760000000     0.376730000000     0.089990000000     0.0339019  
C130     C      0.885770000000     0.388670000000     0.045590000000     0.0342696  
C131     C      0.910210000000     0.417470000000     0.054490000000     0.0331311  
C132     C      0.894860000000     0.402570000000     0.098950000000     0.0337028  
C133     C      0.633900000000     0.359580000000     0.008150000000     0.0324006  
C134     C      0.661140000000     0.404710000000     0.037080000000     0.0321054  
C135     C      0.636330000000     0.432490000000     0.027370000000     0.0315201  
C136     C      0.608990000000     0.387370000000     0.998480000000     0.0314486  
C137     C      0.852550000000     0.656640000000     0.361770000000     0.0324167  
C138     C      0.870690000000     0.644480000000     0.406080000000     0.0323884  
C139     C      0.899410000000     0.620960000000     0.397030000000     0.0333116  
C140     C      0.880170000000     0.631060000000     0.352700000000     0.0337276  
C141     C      0.631790000000     0.667630000000     0.432920000000     0.032154   
C142     C      0.677020000000     0.641390000000     0.462090000000     0.0317524  
C143     C      0.649260000000     0.617910000000     0.473310000000     0.0325016  
C144     C      0.604340000000     0.643820000000     0.443760000000     0.0321693  
C145     C      0.788190000000     0.777520000000     0.282320000000     0.031974   
C146     C      0.728100000000     0.748460000000     0.280810000000     0.0320645  
C147     C      0.722760000000     0.755700000000     0.307820000000     0.0322239  
C148     C      0.782650000000     0.785210000000     0.309240000000     0.0315831  
C149     C      0.753090000000     0.729480000000     0.056320000000     0.032087   
C150     C      0.744940000000     0.796320000000     0.056650000000     0.0321622  
C151     C      0.757080000000     0.798210000000     0.030390000000     0.0320211  
C152     C      0.765360000000     0.731380000000     0.030000000000     0.0318228  
C153     C      0.887590000000     0.661250000000     0.163230000000     0.0321042  
C154     C      0.846100000000     0.638060000000     0.130390000000     0.0311289  
C155     C      0.874320000000     0.613550000000     0.120870000000     0.0319654  
C156     C      0.915410000000     0.635890000000     0.154230000000     0.0316917  
C157     C      0.623410000000     0.674620000000     0.207170000000     0.0315739  
C158     C      0.655450000000     0.627870000000     0.182220000000     0.0316767  
C159     C      0.633180000000     0.599510000000     0.194030000000     0.031304   
C160     C      0.601100000000     0.646200000000     0.219020000000     0.0316461  
C161     C      0.652560000000     0.896170000000     0.174560000000     0.0337574  
C162     C      0.670450000000     0.884060000000     0.218960000000     0.0337502  
C163     C      0.645320000000     0.912100000000     0.227790000000     0.0343904  
C164     C      0.625060000000     0.921580000000     0.183590000000     0.0341506  
C165     C      0.654660000000     0.168750000000     0.246080000000     0.0329431  
C166     C      0.639500000000     0.153440000000     0.290410000000     0.0333359  
C167     C      0.612940000000     0.126790000000     0.281220000000     0.0331048  
C168     C      0.625460000000     0.144930000000     0.237000000000     0.0336043  
C169     C      0.551680000000     0.018240000000     0.369890000000     0.0326967  
C170     C      0.485320000000     0.026240000000     0.369930000000     0.0323567  
C171     C      0.483690000000     0.013280000000     0.344020000000     0.0323894  
C172     C      0.550090000000     0.005760000000     0.343740000000     0.032521   
C173     C      0.509350000000     0.981950000000     0.094250000000     0.0324868  
C174     C      0.516580000000     0.048700000000     0.090310000000     0.0310728  
C175     C      0.514380000000     0.053080000000     0.117690000000     0.0320863  
C176     C      0.507150000000     0.986360000000     0.121770000000     0.0311299  
C177     C      0.603300000000     0.885520000000     0.456680000000     0.0321016  
C178     C      0.650980000000     0.932530000000     0.455840000000     0.0324485  
C179     C      0.676270000000     0.906110000000     0.445190000000     0.0324921  
C180     C      0.628150000000     0.859570000000     0.444330000000     0.0319724  
C181     C      0.643840000000     0.135520000000     0.982670000000     0.0335163  
C182     C      0.619630000000     0.131600000000     0.026340000000     0.0333759  
C183     C      0.648450000000     0.155080000000     0.035420000000     0.03316    
C184     C      0.671110000000     0.161330000000     0.991480000000     0.0330135  
C185     C      0.147580000000     0.621890000000     0.367840000000     0.0320137  
C186     C      0.104340000000     0.647760000000     0.398600000000     0.0319132  
C187     C      0.132520000000     0.671650000000     0.408590000000     0.0321726  
C188     C      0.175870000000     0.645650000000     0.377970000000     0.031951   
C189     C      0.349810000000     0.632910000000     0.450260000000     0.0335938  
C190     C      0.387940000000     0.684080000000     0.465100000000     0.0335971  
C191     C      0.413730000000     0.658430000000     0.475610000000     0.0348163  
C192     C      0.374210000000     0.607140000000     0.462950000000     0.0337221  
C193     C      0.369520000000     0.906840000000     0.423450000000     0.0321821  
C194     C      0.396880000000     0.861410000000     0.452140000000     0.0321274  
C195     C      0.420730000000     0.889180000000     0.462650000000     0.0316459  
C196     C      0.393590000000     0.934800000000     0.434000000000     0.0313427  
C197     C      0.279030000000     0.733280000000     0.308780000000     0.0321003  
C198     C      0.244090000000     0.790600000000     0.309790000000     0.0311607  
C199     C      0.233730000000     0.785270000000     0.283090000000     0.0329431  
C200     C      0.270180000000     0.728940000000     0.282020000000     0.0331382  
C201     C      0.249820000000     0.743990000000     0.059950000000     0.0324441  
C202     C      0.280560000000     0.803800000000     0.059340000000     0.033293   
C203     C      0.272360000000     0.807380000000     0.032430000000     0.0341231  
C204     C      0.239460000000     0.748770000000     0.033250000000     0.0334625  
C205     C      0.130860000000     0.671390000000     0.155320000000     0.0317372  
C206     C      0.177470000000     0.639350000000     0.130330000000     0.0313209  
C207     C      0.149630000000     0.617120000000     0.118160000000     0.031922   
C208     C      0.103080000000     0.649230000000     0.143170000000     0.0320052  
C209     C      0.389620000000     0.602090000000     0.190990000000     0.0312404  
C210     C      0.418080000000     0.646680000000     0.219690000000     0.0316666  
C211     C      0.395380000000     0.675590000000     0.208860000000     0.0316377  
C212     C      0.367190000000     0.631070000000     0.179980000000     0.0316102  
C213     C      0.378640000000     0.884330000000     0.182380000000     0.0328226  
C214     C      0.357200000000     0.878500000000     0.226600000000     0.0328943  
C215     C      0.383770000000     0.905850000000     0.234720000000     0.0340036  
C216     C      0.407000000000     0.908950000000     0.190820000000     0.0336207  
C217     C      0.127500000000     0.356500000000     0.330680000000     0.0321357  
C218     C      0.157880000000     0.401550000000     0.303200000000     0.032457   
C219     C      0.135750000000     0.430500000000     0.314310000000     0.0317315  
C220     C      0.105240000000     0.385370000000     0.341650000000     0.0320982  
C221     C      0.384140000000     0.356930000000     0.283030000000     0.0319314  
C222     C      0.342980000000     0.384510000000     0.251580000000     0.0316328  
C223     C      0.371800000000     0.408710000000     0.242940000000     0.0322908  
C224     C      0.412880000000     0.381400000000     0.274550000000     0.0321006  
C225     C      0.370560000000     0.169970000000     0.242720000000     0.0328138  
C226     C      0.379690000000     0.151920000000     0.287340000000     0.0329799  
C227     C      0.406340000000     0.124680000000     0.279070000000     0.0326148  
C228     C      0.399800000000     0.145350000000     0.234780000000     0.0330858  
C229     C      0.270070000000     0.280150000000     0.426990000000     0.0322434  
C230     C      0.207410000000     0.257200000000     0.426190000000     0.0324712  
C231     C      0.210890000000     0.251230000000     0.398710000000     0.0313507  
C232     C      0.273670000000     0.273790000000     0.399930000000     0.0317871  
C233     C      0.237990000000     0.299210000000     0.176840000000     0.0324907  
C234     C      0.242770000000     0.232020000000     0.175960000000     0.032283   
C235     C      0.254650000000     0.233620000000     0.149680000000     0.0321704  
C236     C      0.249500000000     0.300800000000     0.150360000000     0.0324819  
C237     C      0.168580000000     0.400230000000     0.067720000000     0.0319082  
C238     C      0.120360000000     0.353860000000     0.066300000000     0.0315428  
C239     C      0.095780000000     0.379350000000     0.079500000000     0.0317007  
C240     C      0.143920000000     0.425850000000     0.079730000000     0.0319676  
C241     C      0.364400000000     0.396200000000     0.034970000000     0.0320189  
C242     C      0.389600000000     0.353980000000     0.003140000000     0.0320614  
C243     C      0.415840000000     0.381840000000     0.995310000000     0.0314745  
C244     C      0.390330000000     0.424000000000     0.027070000000     0.0314306  
C245     C      0.384000000000     0.130020000000     0.482130000000     0.0336708  
C246     C      0.405250000000     0.125440000000     0.026500000000     0.0331598  
C247     C      0.375170000000     0.148050000000     0.034880000000     0.0333623  
C248     C      0.355460000000     0.154720000000     0.990300000000     0.0330974  
C249     C      0.925940000000     0.146280000000     0.329450000000     0.0323273  
C250     C      0.877230000000     0.100630000000     0.333510000000     0.0324142  
C251     C      0.853030000000     0.124490000000     0.318750000000     0.0323531  
C252     C      0.901720000000     0.170320000000     0.315740000000     0.0323605  
C253     C      0.872220000000     0.892290000000     0.414760000000     0.0329373  
C254     C      0.897370000000     0.847430000000     0.384620000000     0.0325     
C255     C      0.921630000000     0.875280000000     0.374370000000     0.0322153  
C256     C      0.896380000000     0.919980000000     0.404600000000     0.0321819  
C257     C      0.148540000000     0.929690000000     0.388260000000     0.0330091  
C258     C      0.103450000000     0.880040000000     0.386190000000     0.0326935  
C259     C      0.129030000000     0.855500000000     0.398960000000     0.0325314  
C260     C      0.174640000000     0.904740000000     0.399290000000     0.0333187  
C261     C      0.149280000000     0.099640000000     0.329820000000     0.0330857  
C262     C      0.098200000000     0.129660000000     0.307980000000     0.0332072  
C263     C      0.122910000000     0.154820000000     0.295820000000     0.0347314  
C264     C      0.174570000000     0.123300000000     0.315870000000     0.0335084  
C265     C      0.979350000000     0.034780000000     0.223120000000     0.0325885  
C266     C      0.036830000000     0.000750000000     0.221790000000     0.0308395  
C267     C      0.032250000000     0.990710000000     0.248650000000     0.0331646  
C268     C      0.975960000000     0.026680000000     0.250100000000     0.0329668  
C269     C      0.032940000000     0.992820000000     0.997690000000     0.0329857  
C270     C      0.976430000000     0.028450000000     0.998930000000     0.0325484  
C271     C      0.980390000000     0.037380000000     0.472130000000     0.0326999  
C272     C      0.038100000000     0.003750000000     0.471010000000     0.0307242  
C273     C      0.922320000000     0.147980000000     0.076610000000     0.0316895  
C274     C      0.873360000000     0.114980000000     0.098440000000     0.0318764  
C275     C      0.846980000000     0.140290000000     0.087210000000     0.0310115  
C276     C      0.896080000000     0.173160000000     0.065440000000     0.0314189  
C277     C      0.905970000000     0.905410000000     0.156530000000     0.0328692  
C278     C      0.893220000000     0.890210000000     0.111840000000     0.0333326  
C279     C      0.864820000000     0.864820000000     0.120240000000     0.0330333  
C280     C      0.880450000000     0.877120000000     0.164920000000     0.0332269  
C281     C      0.175410000000     0.901630000000     0.141880000000     0.0323731  
C282     C      0.129180000000     0.853340000000     0.144340000000     0.0318009  
C283     C      0.102450000000     0.878260000000     0.132920000000     0.0321204  
C284     C      0.148190000000     0.927150000000     0.132320000000     0.0323374  
C285     C      0.102800000000     0.130350000000     0.059530000000     0.0316718  
C286     C      0.145230000000     0.111790000000     0.093200000000     0.0319332  
C287     C      0.172350000000     0.136850000000     0.082740000000     0.0314603  
C288     C      0.129340000000     0.156300000000     0.049680000000     0.0320621  
C289     C      0.083560000000     0.083720000000     0.591190000000     0.36469    
C290     C      0.000650000000     0.002880000000     0.538850000000     0.362049   
C291     C      0.084900000000     0.941780000000     0.620170000000     0.360607   
C292     C      0.937150000000     0.939820000000     0.622220000000     0.357696   
C293     C      0.937140000000     0.091950000000     0.601340000000     0.365722   
C294     C      0.011330000000     0.027840000000     0.682020000000     0.360297   
C295     C      0.013210000000     0.031550000000     0.931270000000     0.359481   
C296     C      0.939430000000     0.087410000000     0.850070000000     0.369873   
C297     C      0.085460000000     0.079530000000     0.837730000000     0.370806   
C298     C      0.000610000000     0.001190000000     0.789990000000     0.360813   
C299     C      0.944060000000     0.939590000000     0.874390000000     0.370057   
C300     C      0.087350000000     0.943090000000     0.872230000000     0.370763   
C301     C      0.189490000000     0.186780000000     0.552700000000     0.36386    
C302     C      0.325700000000     0.190820000000     0.524030000000     0.374088   
C303     C      0.237750000000     0.271530000000     0.967640000000     0.370927   
C304     C      0.335550000000     0.335450000000     0.528610000000     0.367615   
C305     C      0.266440000000     0.268870000000     0.610350000000     0.371978   
C306     C      0.183090000000     0.338730000000     0.551140000000     0.361361   
C307     C      0.330230000000     0.195370000000     0.776170000000     0.362096   
C308     C      0.183520000000     0.180810000000     0.791550000000     0.368338   
C309     C      0.247450000000     0.254840000000     0.858730000000     0.363872   
C310     C      0.176560000000     0.336130000000     0.801600000000     0.371697   
C311     C      0.231810000000     0.263630000000     0.716840000000     0.369768   
C312     C      0.321030000000     0.333660000000     0.778890000000     0.367503   
C313     C      0.192920000000     0.840010000000     0.657610000000     0.360854   
C314     C      0.329780000000     0.840680000000     0.692250000000     0.365986   
C315     C      0.246730000000     0.754260000000     0.741860000000     0.364936   
C316     C      0.344010000000     0.695220000000     0.681220000000     0.363785   
C317     C      0.277160000000     0.768960000000     0.599610000000     0.366295   
C318     C      0.195130000000     0.690790000000     0.658690000000     0.368345   
C319     C      0.192340000000     0.842710000000     0.912420000000     0.368019   
C320     C      0.195580000000     0.695400000000     0.907170000000     0.369319   
C321     C      0.275060000000     0.768220000000     0.849100000000     0.360917   
C322     C      0.332330000000     0.697430000000     0.941360000000     0.372745   
C323     C      0.250970000000     0.780450000000     0.492270000000     0.367867   
C324     C      0.343330000000     0.843970000000     0.926510000000     0.372953   
C325     C      0.439330000000     0.094680000000     0.492210000000     0.377672   
C326     C      0.514880000000     0.010610000000     0.551380000000     0.377993   
C327     C      0.442930000000     0.953230000000     0.963850000000     0.366796   
C328     C      0.589450000000     0.949550000000     0.970250000000     0.363166   
C329     C      0.589530000000     0.097880000000     0.491830000000     0.378179   
C330     C      0.519950000000     0.036410000000     0.909360000000     0.377772   
C331     C      0.437730000000     0.944000000000     0.724380000000     0.372014   
C332     C      0.515180000000     0.999730000000     0.803840000000     0.379964   
C333     C      0.591950000000     0.951000000000     0.718800000000     0.373073   
C334     C      0.582160000000     0.094370000000     0.745920000000     0.361109   
C335     C      0.441080000000     0.093420000000     0.744950000000     0.359524   
C336     C      0.509570000000     0.025160000000     0.660560000000     0.375951   
C337     C      0.694430000000     0.845390000000     0.684250000000     0.370028   
C338     C      0.830470000000     0.833800000000     0.654740000000     0.359729   
C339     C      0.762940000000     0.757020000000     0.740850000000     0.369209   
C340     C      0.825830000000     0.688410000000     0.659010000000     0.361966   
C341     C      0.738080000000     0.761350000000     0.596730000000     0.369582   
C342     C      0.675340000000     0.692930000000     0.679540000000     0.363842   
C343     C      0.843920000000     0.831140000000     0.911070000000     0.372329   
C344     C      0.824250000000     0.691230000000     0.897470000000     0.369488   
C345     C      0.775130000000     0.767270000000     0.490400000000     0.368832   
C346     C      0.694400000000     0.692170000000     0.932940000000     0.36872    
C347     C      0.746870000000     0.778850000000     0.849010000000     0.366913   
C348     C      0.690970000000     0.843520000000     0.930510000000     0.362245   
C349     C      0.832570000000     0.195160000000     0.560620000000     0.361302   
C350     C      0.780710000000     0.275100000000     0.973960000000     0.367589   
C351     C      0.698360000000     0.197720000000     0.526240000000     0.373051   
C352     C      0.686960000000     0.341830000000     0.534730000000     0.366049   
C353     C      0.836530000000     0.344570000000     0.555310000000     0.366597   
C354     C      0.750390000000     0.271080000000     0.617150000000     0.370398   
C355     C      0.840960000000     0.186320000000     0.800220000000     0.366831   
C356     C      0.691480000000     0.194690000000     0.781240000000     0.362861   
C357     C      0.766510000000     0.251920000000     0.865720000000     0.363387   
C358     C      0.698590000000     0.335260000000     0.784350000000     0.365891   
C359     C      0.787710000000     0.264680000000     0.723420000000     0.367852   
C360     C      0.840470000000     0.337770000000     0.811550000000     0.371067   
C361     C      0.440790000000     0.445190000000     0.499510000000     0.367964   
C362     C      0.502670000000     0.516970000000     0.917190000000     0.365914   
C363     C      0.434440000000     0.595510000000     0.982010000000     0.373945   
C364     C      0.585510000000     0.595290000000     0.973850000000     0.37394    
C365     C      0.584980000000     0.451200000000     0.499570000000     0.36485    
C366     C      0.510100000000     0.536810000000     0.559440000000     0.36868    
C367     C      0.434580000000     0.432510000000     0.747340000000     0.371628   
C368     C      0.585680000000     0.432570000000     0.749050000000     0.370507   
C369     C      0.510840000000     0.492480000000     0.664420000000     0.370124   
C370     C      0.582420000000     0.580620000000     0.722370000000     0.362999   
C371     C      0.507580000000     0.520740000000     0.807410000000     0.370673   
C372     C      0.438060000000     0.581390000000     0.720830000000     0.362888   
C373     C      0.085430000000     0.596690000000     0.616040000000     0.372811   
C374     C      0.083030000000     0.443010000000     0.595010000000     0.363356   
C375     C      0.024850000000     0.503560000000     0.676300000000     0.370954   
C376     C      0.939680000000     0.450950000000     0.589890000000     0.36628    
C377     C      0.017960000000     0.533860000000     0.535220000000     0.365301   
C378     C      0.937090000000     0.588520000000     0.623750000000     0.365228   
C379     C      0.085370000000     0.450370000000     0.842570000000     0.366659   
C380     C      0.017650000000     0.529510000000     0.782990000000     0.368902   
C381     C      0.938740000000     0.449940000000     0.846790000000     0.366834   
C382     C      0.934450000000     0.592850000000     0.862480000000     0.375801   
C383     C      0.084500000000     0.597920000000     0.869660000000     0.368947   
C384     C      0.010840000000     0.509840000000     0.927580000000     0.374063   
C385     C      0.000120000000     0.485790000000     0.718120000000     0.0328376  
C386     C      0.053730000000     0.525770000000     0.715350000000     0.034465   
C387     C      0.050980000000     0.533980000000     0.742290000000     0.033039   
C388     C      0.995930000000     0.495960000000     0.744830000000     0.0334234  
C389     C      0.039640000000     0.500680000000     0.496710000000     0.031354   
C390     C      0.989120000000     0.544530000000     0.493530000000     0.0326815  
C391     C      0.986470000000     0.537060000000     0.966550000000     0.0347551  
C392     C      0.035420000000     0.491460000000     0.969740000000     0.0338806  
C393     C      0.507350000000     0.485180000000     0.875660000000     0.0321352  
C394     C      0.498880000000     0.551970000000     0.876600000000     0.0315742  
C395     C      0.501110000000     0.553460000000     0.848880000000     0.0326539  
C396     C      0.509040000000     0.486600000000     0.848090000000     0.031946   
C397     C      0.543720000000     0.523140000000     0.599180000000     0.0323344  
C398     C      0.477050000000     0.521310000000     0.599050000000     0.0321975  
C399     C      0.477350000000     0.506760000000     0.624780000000     0.0324578  
C400     C      0.544020000000     0.508560000000     0.624930000000     0.0324143  
C401     C      0.888640000000     0.358640000000     0.841380000000     0.032123   
C402     C      0.862600000000     0.401980000000     0.810590000000     0.0323523  
C403     C      0.886570000000     0.430440000000     0.820210000000     0.0313733  
C404     C      0.913180000000     0.386990000000     0.850680000000     0.0319893  
C405     C      0.648980000000     0.409320000000     0.746440000000     0.0321848  
C406     C      0.606630000000     0.382280000000     0.777310000000     0.0318486  
C407     C      0.635180000000     0.358270000000     0.786750000000     0.0319491  
C408     C      0.677660000000     0.385640000000     0.756120000000     0.0315451  
C409     C      0.805620000000     0.250390000000     0.933230000000     0.0322767  
C410     C      0.745980000000     0.280430000000     0.933810000000     0.0318347  
C411     C      0.741160000000     0.272740000000     0.906910000000     0.0315881  
C412     C      0.801100000000     0.243330000000     0.906020000000     0.0315105  
C413     C      0.765670000000     0.302420000000     0.657670000000     0.0316557  
C414     C      0.762960000000     0.235160000000     0.656220000000     0.0318574  
C415     C      0.775540000000     0.233410000000     0.682410000000     0.0317724  
C416     C      0.778120000000     0.300670000000     0.683930000000     0.0317451  
C417     C      0.867750000000     0.376730000000     0.589990000000     0.0339058  
C418     C      0.885770000000     0.388670000000     0.545590000000     0.0342787  
C419     C      0.910210000000     0.417470000000     0.554490000000     0.0331132  
C420     C      0.894860000000     0.402570000000     0.598950000000     0.0337077  
C421     C      0.633900000000     0.359580000000     0.508150000000     0.0318172  
C422     C      0.661140000000     0.404710000000     0.537080000000     0.0320232  
C423     C      0.636330000000     0.432490000000     0.527370000000     0.0315496  
C424     C      0.608990000000     0.387370000000     0.498480000000     0.0320004  
C425     C      0.852550000000     0.656640000000     0.861770000000     0.0323728  
C426     C      0.870690000000     0.644480000000     0.906090000000     0.0322587  
C427     C      0.899410000000     0.620960000000     0.897030000000     0.0333776  
C428     C      0.880170000000     0.631060000000     0.852700000000     0.0337536  
C429     C      0.631790000000     0.667630000000     0.932920000000     0.0321591  
C430     C      0.677020000000     0.641390000000     0.962090000000     0.031804   
C431     C      0.649260000000     0.617910000000     0.973320000000     0.0324119  
C432     C      0.604340000000     0.643820000000     0.943760000000     0.0321639  
C433     C      0.788190000000     0.777520000000     0.782320000000     0.0319776  
C434     C      0.728100000000     0.748460000000     0.780820000000     0.0319991  
C435     C      0.722770000000     0.755700000000     0.807820000000     0.0323041  
C436     C      0.782650000000     0.785210000000     0.809240000000     0.0316081  
C437     C      0.753080000000     0.729480000000     0.556320000000     0.032086   
C438     C      0.744940000000     0.796320000000     0.556650000000     0.0321389  
C439     C      0.757080000000     0.798210000000     0.530390000000     0.0320101  
C440     C      0.765360000000     0.731380000000     0.530000000000     0.0317907  
C441     C      0.887590000000     0.661250000000     0.663230000000     0.0321473  
C442     C      0.846100000000     0.638060000000     0.630390000000     0.0311327  
C443     C      0.874320000000     0.613550000000     0.620870000000     0.0319346  
C444     C      0.915410000000     0.635900000000     0.654230000000     0.0316372  
C445     C      0.623410000000     0.674620000000     0.707170000000     0.0315877  
C446     C      0.655450000000     0.627870000000     0.682230000000     0.0317236  
C447     C      0.633180000000     0.599510000000     0.694030000000     0.0312822  
C448     C      0.601100000000     0.646200000000     0.719020000000     0.0316189  
C449     C      0.652560000000     0.896180000000     0.674560000000     0.0337101  
C450     C      0.670450000000     0.884060000000     0.718960000000     0.0337998  
C451     C      0.645320000000     0.912100000000     0.727790000000     0.0342962  
C452     C      0.625060000000     0.921590000000     0.683590000000     0.0342379  
C453     C      0.654660000000     0.168750000000     0.746080000000     0.0329546  
C454     C      0.639500000000     0.153450000000     0.790410000000     0.0333434  
C455     C      0.612940000000     0.126800000000     0.781220000000     0.0331051  
C456     C      0.625460000000     0.144930000000     0.737000000000     0.0335972  
C457     C      0.551680000000     0.018250000000     0.869890000000     0.0327     
C458     C      0.485320000000     0.026240000000     0.869930000000     0.0323506  
C459     C      0.483690000000     0.013280000000     0.844020000000     0.032391   
C460     C      0.550090000000     0.005760000000     0.843740000000     0.0325219  
C461     C      0.509340000000     0.981950000000     0.594260000000     0.032434   
C462     C      0.516570000000     0.048700000000     0.590310000000     0.0310837  
C463     C      0.514380000000     0.053080000000     0.617690000000     0.0320758  
C464     C      0.507150000000     0.986360000000     0.621770000000     0.0311364  
C465     C      0.603300000000     0.885520000000     0.956680000000     0.0320909  
C466     C      0.650980000000     0.932530000000     0.955840000000     0.0324377  
C467     C      0.676270000000     0.906110000000     0.945190000000     0.0324795  
C468     C      0.628150000000     0.859570000000     0.944330000000     0.0319622  
C469     C      0.643840000000     0.135520000000     0.482670000000     0.0336871  
C470     C      0.619640000000     0.131600000000     0.526340000000     0.033429   
C471     C      0.648450000000     0.155070000000     0.535420000000     0.0330613  
C472     C      0.671110000000     0.161330000000     0.491480000000     0.0331571  
C473     C      0.147580000000     0.621890000000     0.867840000000     0.0320043  
C474     C      0.104340000000     0.647760000000     0.898600000000     0.0319024  
C475     C      0.132520000000     0.671650000000     0.908590000000     0.0321756  
C476     C      0.175870000000     0.645650000000     0.877970000000     0.0319617  
C477     C      0.349810000000     0.632910000000     0.950260000000     0.0335587  
C478     C      0.387940000000     0.684080000000     0.965100000000     0.0335762  
C479     C      0.413730000000     0.658430000000     0.975610000000     0.0347736  
C480     C      0.374210000000     0.607140000000     0.962950000000     0.0337391  
C481     C      0.369520000000     0.906840000000     0.923450000000     0.0321589  
C482     C      0.396870000000     0.861410000000     0.952140000000     0.0321982  
C483     C      0.420730000000     0.889180000000     0.962650000000     0.0316005  
C484     C      0.393600000000     0.934800000000     0.934000000000     0.0313906  
C485     C      0.279030000000     0.733280000000     0.808790000000     0.032143   
C486     C      0.244090000000     0.790600000000     0.809790000000     0.0311666  
C487     C      0.233730000000     0.785270000000     0.783090000000     0.0329363  
C488     C      0.270180000000     0.728940000000     0.782030000000     0.0330984  
C489     C      0.249820000000     0.743980000000     0.559950000000     0.0323143  
C490     C      0.280560000000     0.803790000000     0.559340000000     0.0333026  
C491     C      0.272360000000     0.807370000000     0.532430000000     0.0341088  
C492     C      0.239470000000     0.748770000000     0.533250000000     0.0335649  
C493     C      0.130860000000     0.671400000000     0.655320000000     0.0316926  
C494     C      0.177470000000     0.639350000000     0.630330000000     0.0312976  
C495     C      0.149630000000     0.617120000000     0.618160000000     0.0319278  
C496     C      0.103080000000     0.649230000000     0.643170000000     0.0320304  
C497     C      0.389620000000     0.602090000000     0.690990000000     0.0312267  
C498     C      0.418080000000     0.646690000000     0.719690000000     0.0316259  
C499     C      0.395380000000     0.675590000000     0.708860000000     0.0316313  
C500     C      0.367190000000     0.631070000000     0.679980000000     0.0316346  
C501     C      0.378640000000     0.884330000000     0.682380000000     0.0328142  
C502     C      0.357200000000     0.878500000000     0.726600000000     0.032901   
C503     C      0.383770000000     0.905850000000     0.734720000000     0.0339869  
C504     C      0.407010000000     0.908950000000     0.690820000000     0.0336531  
C505     C      0.127500000000     0.356500000000     0.830670000000     0.0322023  
C506     C      0.157880000000     0.401550000000     0.803200000000     0.0324978  
C507     C      0.135750000000     0.430500000000     0.814310000000     0.0317593  
C508     C      0.105230000000     0.385370000000     0.841650000000     0.0320219  
C509     C      0.384140000000     0.356930000000     0.783030000000     0.0319168  
C510     C      0.342970000000     0.384510000000     0.751580000000     0.0316279  
C511     C      0.371800000000     0.408710000000     0.742940000000     0.0323063  
C512     C      0.412880000000     0.381400000000     0.774550000000     0.0321103  
C513     C      0.370560000000     0.169970000000     0.742720000000     0.0328064  
C514     C      0.379690000000     0.151920000000     0.787340000000     0.0329782  
C515     C      0.406340000000     0.124680000000     0.779070000000     0.0326236  
C516     C      0.399800000000     0.145350000000     0.734780000000     0.0331223  
C517     C      0.270070000000     0.280140000000     0.926990000000     0.0322498  
C518     C      0.207410000000     0.257200000000     0.926190000000     0.0324935  
C519     C      0.210890000000     0.251230000000     0.898710000000     0.0312994  
C520     C      0.273670000000     0.273790000000     0.899930000000     0.0317563  
C521     C      0.237990000000     0.299210000000     0.676840000000     0.032489   
C522     C      0.242770000000     0.232020000000     0.675960000000     0.032283   
C523     C      0.254660000000     0.233620000000     0.649680000000     0.0321805  
C524     C      0.249500000000     0.300800000000     0.650360000000     0.0324888  
C525     C      0.168580000000     0.400230000000     0.567720000000     0.0318893  
C526     C      0.120360000000     0.353860000000     0.566300000000     0.0315301  
C527     C      0.095780000000     0.379350000000     0.579500000000     0.0316974  
C528     C      0.143920000000     0.425850000000     0.579740000000     0.0319917  
C529     C      0.364400000000     0.396200000000     0.534970000000     0.0319327  
C530     C      0.389600000000     0.353980000000     0.503140000000     0.0315007  
C531     C      0.415840000000     0.381840000000     0.495310000000     0.0320279  
C532     C      0.390330000000     0.424000000000     0.527070000000     0.0314703  
C533     C      0.384000000000     0.130010000000     0.982130000000     0.0334492  
C534     C      0.405250000000     0.125440000000     0.526500000000     0.0331452  
C535     C      0.375170000000     0.148060000000     0.534880000000     0.0333262  
C536     C      0.355460000000     0.154730000000     0.490290000000     0.0331341  
C537     C      0.925940000000     0.146280000000     0.829450000000     0.0323072  
C538     C      0.877230000000     0.100630000000     0.833510000000     0.0324092  
C539     C      0.853030000000     0.124490000000     0.818750000000     0.0323575  
C540     C      0.901720000000     0.170320000000     0.815740000000     0.0323968  
C541     C      0.872220000000     0.892290000000     0.914760000000     0.0328913  
C542     C      0.897380000000     0.847440000000     0.884620000000     0.0324921  
C543     C      0.921630000000     0.875280000000     0.874370000000     0.0321909  
C544     C      0.896380000000     0.919980000000     0.904590000000     0.0322571  
C545     C      0.148540000000     0.929690000000     0.888260000000     0.0330248  
C546     C      0.103450000000     0.880050000000     0.886190000000     0.0327651  
C547     C      0.129030000000     0.855500000000     0.898960000000     0.0324892  
C548     C      0.174640000000     0.904740000000     0.899290000000     0.0332986  
C549     C      0.149280000000     0.099640000000     0.829820000000     0.0330727  
C550     C      0.098200000000     0.129660000000     0.807980000000     0.0332372  
C551     C      0.122910000000     0.154820000000     0.795820000000     0.0347201  
C552     C      0.174570000000     0.123300000000     0.815870000000     0.0335135  
C553     C      0.979350000000     0.034790000000     0.723120000000     0.0325652  
C554     C      0.036830000000     0.000750000000     0.721780000000     0.0308875  
C555     C      0.032250000000     0.990710000000     0.748650000000     0.0331502  
C556     C      0.975960000000     0.026680000000     0.750100000000     0.0329846  
C557     C      0.032940000000     0.992820000000     0.497690000000     0.0335154  
C558     C      0.976430000000     0.028450000000     0.498930000000     0.0329772  
C559     C      0.980390000000     0.037380000000     0.972120000000     0.0328329  
C560     C      0.038100000000     0.003750000000     0.971010000000     0.0309477  
C561     C      0.922320000000     0.147980000000     0.576610000000     0.0316819  
C562     C      0.873360000000     0.114980000000     0.598440000000     0.0318711  
C563     C      0.846980000000     0.140290000000     0.587210000000     0.0310041  
C564     C      0.896080000000     0.173160000000     0.565440000000     0.0314093  
C565     C      0.905970000000     0.905410000000     0.656540000000     0.032677   
C566     C      0.893220000000     0.890210000000     0.611840000000     0.0333525  
C567     C      0.864820000000     0.864820000000     0.620240000000     0.0329479  
C568     C      0.880450000000     0.877120000000     0.664920000000     0.0334244  
C569     C      0.175410000000     0.901630000000     0.641880000000     0.0323723  
C570     C      0.129190000000     0.853350000000     0.644340000000     0.0319191  
C571     C      0.102450000000     0.878260000000     0.632920000000     0.0320513  
C572     C      0.148190000000     0.927150000000     0.632320000000     0.0323235  
C573     C      0.102800000000     0.130350000000     0.559530000000     0.0316724  
C574     C      0.145230000000     0.111790000000     0.593200000000     0.0319283  
C575     C      0.172350000000     0.136850000000     0.582740000000     0.0314511  
C576     C      0.129340000000     0.156300000000     0.549680000000     0.0320462  
H1       H      0.978990000000     0.467510000000     0.209070000000     0.0427472  
H2       H      0.076320000000     0.539100000000     0.204080000000     0.0418596  
H3       H      0.071880000000     0.552840000000     0.251010000000     0.0443147  
H4       H      0.972610000000     0.483570000000     0.255830000000     0.0447475  
H5       H      0.060930000000     0.485530000000     0.008060000000     0.0450967  
H6       H      0.969880000000     0.565310000000     0.002040000000     0.0447598  
H7       H      0.965420000000     0.552670000000     0.455220000000     0.0418103  
H8       H      0.054550000000     0.470940000000     0.460830000000     0.0413003  
H9       H      0.510210000000     0.457620000000     0.385250000000     0.0442203  
H10      H      0.494950000000     0.578730000000     0.387050000000     0.0466786  
H11      H      0.498450000000     0.580920000000     0.339110000000     0.0437693  
H12      H      0.513130000000     0.459670000000     0.337860000000     0.0467907  
H13      H      0.570750000000     0.528640000000     0.089770000000     0.045306   
H14      H      0.449830000000     0.525330000000     0.089550000000     0.0452547  
H15      H      0.450300000000     0.501240000000     0.134160000000     0.0451977  
H16      H      0.571220000000     0.504560000000     0.134460000000     0.0451676  
H17      H      0.890490000000     0.330630000000     0.350450000000     0.045714   
H18      H      0.843130000000     0.409320000000     0.294770000000     0.0446382  
H19      H      0.884580000000     0.458370000000     0.311030000000     0.0468157  
H20      H      0.932950000000     0.379640000000     0.366320000000     0.0445811  
H21      H      0.655840000000     0.429130000000     0.230620000000     0.0443568  
H22      H      0.578990000000     0.379900000000     0.286460000000     0.0457401  
H23      H      0.628270000000     0.338410000000     0.302540000000     0.0445872  
H24      H      0.705280000000     0.388040000000     0.246950000000     0.0457452  
H25      H      0.831270000000     0.240680000000     0.442890000000     0.0438738  
H26      H      0.723050000000     0.295150000000     0.443800000000     0.0467231  
H27      H      0.715360000000     0.282480000000     0.397460000000     0.0447117  
H28      H      0.823890000000     0.228810000000     0.395770000000     0.0456809  
H29      H      0.762730000000     0.330370000000     0.148650000000     0.0446431  
H30      H      0.757790000000     0.208390000000     0.146030000000     0.0454584  
H31      H      0.778470000000     0.205430000000     0.191400000000     0.0457936  
H32      H      0.783240000000     0.327420000000     0.194150000000     0.0448756  
H33      H      0.850990000000     0.361550000000     0.104620000000     0.0417997  
H34      H      0.882980000000     0.383610000000     0.024440000000     0.0402757  
H35      H      0.926300000000     0.433450000000     0.039900000000     0.042417   
H36      H      0.897970000000     0.406920000000     0.120160000000     0.0420843  
H37      H      0.631900000000     0.331150000000     0.999740000000     0.0456039  
H38      H      0.681420000000     0.413080000000     0.052140000000     0.0448755  
H39      H      0.638450000000     0.460910000000     0.035780000000     0.0459306  
H40      H      0.588740000000     0.379060000000     0.983380000000     0.0445288  
H41      H      0.834790000000     0.670710000000     0.347200000000     0.0444297  
H42      H      0.868150000000     0.648750000000     0.427340000000     0.0449712  
H43      H      0.917200000000     0.607420000000     0.411850000000     0.0442681  
H44      H      0.883150000000     0.626330000000     0.331530000000     0.0425117  
H45      H      0.623360000000     0.686940000000     0.417170000000     0.0447803  
H46      H      0.705390000000     0.639590000000     0.470130000000     0.0453418  
H47      H      0.657390000000     0.598610000000     0.489150000000     0.0440225  
H48      H      0.576000000000     0.645930000000     0.435670000000     0.0464622  
H49      H      0.814160000000     0.787170000000     0.273060000000     0.0439064  
H50      H      0.705460000000     0.733900000000     0.270400000000     0.0464166  
H51      H      0.696810000000     0.746040000000     0.317090000000     0.0442029  
H52      H      0.805330000000     0.799760000000     0.319600000000     0.046483   
H53      H      0.752560000000     0.701730000000     0.065860000000     0.0444006  
H54      H      0.737540000000     0.822920000000     0.066360000000     0.0463849  
H55      H      0.757710000000     0.826040000000     0.020970000000     0.0457376  
H56      H      0.772710000000     0.704840000000     0.020180000000     0.0451101  
H57      H      0.894300000000     0.679730000000     0.179840000000     0.0447297  
H58      H      0.819150000000     0.637800000000     0.120150000000     0.0456984  
H59      H      0.867780000000     0.595370000000     0.104060000000     0.0440485  
H60      H      0.942410000000     0.636180000000     0.164420000000     0.0468777  
H61      H      0.618600000000     0.703920000000     0.213240000000     0.0463809  
H62      H      0.676760000000     0.619040000000     0.168020000000     0.0447542  
H63      H      0.638150000000     0.570240000000     0.187950000000     0.0456523  
H64      H      0.579790000000     0.654930000000     0.233250000000     0.0447912  
H65      H      0.654410000000     0.890520000000     0.153430000000     0.0432681  
H66      H      0.687370000000     0.869010000000     0.233570000000     0.0428637  
H67      H      0.643150000000     0.917600000000     0.248930000000     0.0426352  
H68      H      0.607000000000     0.935370000000     0.169040000000     0.042925   
H69      H      0.671140000000     0.184330000000     0.231500000000     0.0426052  
H70      H      0.644110000000     0.156040000000     0.311620000000     0.0416855  
H71      H      0.597570000000     0.110010000000     0.295750000000     0.0422285  
H72      H      0.620780000000     0.142340000000     0.215790000000     0.041388   
H73      H      0.579090000000     0.019210000000     0.379500000000     0.045539   
H74      H      0.458830000000     0.033560000000     0.379510000000     0.0453877  
H75      H      0.456160000000     0.012220000000     0.334560000000     0.0452646  
H76      H      0.576470000000     0.998580000000     0.333970000000     0.0461477  
H77      H      0.506990000000     0.953560000000     0.085850000000     0.042731   
H78      H      0.520430000000     0.074610000000     0.078840000000     0.0471607  
H79      H      0.516790000000     0.081550000000     0.126000000000     0.0432942  
H80      H      0.503390000000     0.960600000000     0.133410000000     0.0466887  
H81      H      0.574590000000     0.876370000000     0.960730000000     0.0432245  
H82      H      0.661250000000     0.961190000000     0.459660000000     0.0446786  
H83      H      0.704980000000     0.915540000000     0.441360000000     0.0444864  
H84      H      0.618110000000     0.830920000000     0.440250000000     0.0433801  
H85      H      0.643030000000     0.128100000000     0.461770000000     0.0426383  
H86      H      0.599810000000     0.120490000000     0.040840000000     0.0443338  
H87      H      0.649240000000     0.162070000000     0.056390000000     0.0440348  
H88      H      0.690790000000     0.172960000000     0.977070000000     0.043446   
H89      H      0.154930000000     0.602570000000     0.351840000000     0.0450866  
H90      H      0.076520000000     0.649620000000     0.407550000000     0.0467791  
H91      H      0.125080000000     0.690960000000     0.424590000000     0.045651   
H92      H      0.203710000000     0.643860000000     0.369040000000     0.0457666  
H93      H      0.324930000000     0.622030000000     0.440210000000     0.0417479  
H94      H      0.394400000000     0.714310000000     0.466600000000     0.0440017  
H95      H      0.439220000000     0.669540000000     0.484800000000     0.0418159  
H96      H      0.368320000000     0.576810000000     0.461540000000     0.0419936  
H97      H      0.349290000000     0.915190000000     0.408360000000     0.0436046  
H98      H      0.399430000000     0.832750000000     0.460110000000     0.0458742  
H99      H      0.440620000000     0.880590000000     0.977910000000     0.0447433  
H100     H      0.391380000000     0.963500000000     0.426080000000     0.0454021  
H101     H      0.296630000000     0.711680000000     0.318020000000     0.0451954  
H102     H      0.232990000000     0.815370000000     0.320080000000     0.0455035  
H103     H      0.216480000000     0.806820000000     0.273480000000     0.0428938  
H104     H      0.281700000000     0.704320000000     0.271740000000     0.0444721  
H105     H      0.240210000000     0.718530000000     0.070180000000     0.0443741  
H106     H      0.296380000000     0.826530000000     0.068860000000     0.0445059  
H107     H      0.282600000000     0.832540000000     0.022120000000     0.043738   
H108     H      0.223840000000     0.726140000000     0.023480000000     0.0426927  
H109     H      0.121950000000     0.692750000000     0.169590000000     0.0448508  
H110     H      0.206550000000     0.634510000000     0.124400000000     0.0457012  
H111     H      0.158420000000     0.595660000000     0.103930000000     0.0441789  
H112     H      0.074020000000     0.654170000000     0.149100000000     0.0464579  
H113     H      0.386310000000     0.573500000000     0.183070000000     0.045341   
H114     H      0.437930000000     0.654420000000     0.235180000000     0.0449724  
H115     H      0.398590000000     0.704160000000     0.216830000000     0.0463797  
H116     H      0.347250000000     0.623310000000     0.164550000000     0.044695   
H117     H      0.377640000000     0.876790000000     0.161500000000     0.044069   
H118     H      0.338250000000     0.866550000000     0.241340000000     0.0433429  
H119     H      0.384900000000     0.913970000000     0.255470000000     0.0421356  
H120     H      0.426270000000     0.920120000000     0.175960000000     0.0440888  
H121     H      0.123220000000     0.327680000000     0.337950000000     0.0461825  
H122     H      0.178430000000     0.409350000000     0.288180000000     0.0448651  
H123     H      0.139970000000     0.459330000000     0.307040000000     0.0460934  
H124     H      0.084660000000     0.377470000000     0.356630000000     0.0452239  
H125     H      0.390420000000     0.336810000000     0.298780000000     0.0444798  
H126     H      0.315820000000     0.386860000000     0.241730000000     0.0459798  
H127     H      0.365520000000     0.428780000000     0.227160000000     0.0445102  
H128     H      0.440070000000     0.379120000000     0.284370000000     0.0457838  
H129     H      0.356500000000     0.186860000000     0.227610000000     0.0429767  
H130     H      0.372610000000     0.153630000000     0.308260000000     0.0417239  
H131     H      0.419380000000     0.106780000000     0.294070000000     0.0425154  
H132     H      0.406970000000     0.143710000000     0.213880000000     0.042141   
H133     H      0.294520000000     0.292000000000     0.437040000000     0.0470826  
H134     H      0.181140000000     0.249550000000     0.435900000000     0.0435223  
H135     H      0.186580000000     0.239950000000     0.388210000000     0.0459987  
H136     H      0.300290000000     0.281290000000     0.390600000000     0.0449614  
H137     H      0.232260000000     0.325960000000     0.186900000000     0.045413   
H138     H      0.241000000000     0.204130000000     0.185230000000     0.0459224  
H139     H      0.260530000000     0.206770000000     0.139790000000     0.0457833  
H140     H      0.251250000000     0.328580000000     0.140940000000     0.0450026  
H141     H      0.197130000000     0.410020000000     0.063770000000     0.0450974  
H142     H      0.110120000000     0.325510000000     0.061540000000     0.0441019  
H143     H      0.067080000000     0.370220000000     0.083560000000     0.04389    
H144     H      0.154750000000     0.454050000000     0.084380000000     0.0450595  
H145     H      0.344600000000     0.403430000000     0.050620000000     0.0446258  
H146     H      0.390270000000     0.326730000000     0.492930000000     0.045731   
H147     H      0.435650000000     0.374880000000     0.479620000000     0.0439487  
H148     H      0.389340000000     0.451200000000     0.037320000000     0.0463346  
H149     H      0.386420000000     0.123370000000     0.461160000000     0.0434295  
H150     H      0.424460000000     0.114500000000     0.041470000000     0.0445564  
H151     H      0.372730000000     0.154620000000     0.055860000000     0.043733   
H152     H      0.336550000000     0.166160000000     0.475310000000     0.0443577  
H153     H      0.954560000000     0.156260000000     0.332900000000     0.0450249  
H154     H      0.866720000000     0.073090000000     0.340000000000     0.0443697  
H155     H      0.824210000000     0.115240000000     0.315240000000     0.0438198  
H156     H      0.912810000000     0.197710000000     0.309370000000     0.0453957  
H157     H      0.852990000000     0.900560000000     0.430520000000     0.045107   
H158     H      0.898510000000     0.819160000000     0.375890000000     0.045554   
H159     H      0.940800000000     0.867270000000     0.358530000000     0.0444863  
H160     H      0.894890000000     0.948220000000     0.413370000000     0.0468982  
H161     H      0.157410000000     0.958900000000     0.384710000000     0.0439173  
H162     H      0.075460000000     0.869430000000     0.381420000000     0.0429288  
H163     H      0.120560000000     0.826210000000     0.402610000000     0.0432582  
H164     H      0.202700000000     0.915560000000     0.403690000000     0.0434531  
H165     H      0.160490000000     0.078330000000     0.343300000000     0.0416532  
H166     H      0.068250000000     0.133400000000     0.304080000000     0.0452997  
H167     H      0.111270000000     0.177000000000     0.283170000000     0.0424733  
H168     H      0.204620000000     0.120670000000     0.319740000000     0.0413502  
H169     H      0.957380000000     0.051820000000     0.213880000000     0.0449489  
H170     H      0.061180000000     0.989640000000     0.211240000000     0.0452576  
H171     H      0.053980000000     0.973630000000     0.258120000000     0.0433221  
H172     H      0.951620000000     0.038110000000     0.260530000000     0.0445048  
H173     H      0.054560000000     0.975680000000     0.007230000000     0.0431585  
H174     H      0.951810000000     0.039480000000     0.009250000000     0.0443961  
H175     H      0.958500000000     0.054490000000     0.462850000000     0.0440204  
H176     H      0.062740000000     0.993050000000     0.460590000000     0.0455562  
H177     H      0.951820000000     0.152400000000     0.071620000000     0.0466058  
H178     H      0.863030000000     0.092220000000     0.111090000000     0.04452    
H179     H      0.817440000000     0.136120000000     0.092150000000     0.0459326  
H180     H      0.906630000000     0.195750000000     0.052720000000     0.0451683  
H181     H      0.921210000000     0.921400000000     0.171560000000     0.0428406  
H182     H      0.897610000000     0.894370000000     0.090730000000     0.0416696  
H183     H      0.848570000000     0.849830000000     0.105240000000     0.0425671  
H184     H      0.876440000000     0.872650000000     0.186030000000     0.0418079  
H185     H      0.203960000000     0.912150000000     0.144750000000     0.0444594  
H186     H      0.120460000000     0.824380000000     0.148830000000     0.0439813  
H187     H      0.073890000000     0.867940000000     0.129800000000     0.0434973  
H188     H      0.156990000000     0.956230000000     0.128240000000     0.0442245  
H189     H      0.075700000000     0.128900000000     0.049510000000     0.0461015  
H190     H      0.152710000000     0.094870000000     0.110440000000     0.0439947  
H191     H      0.199450000000     0.138510000000     0.092730000000     0.0453018  
H192     H      0.121560000000     0.173470000000     0.032620000000     0.044715   
H193     H      0.978990000000     0.467510000000     0.709070000000     0.042736   
H194     H      0.076320000000     0.539100000000     0.704080000000     0.0418498  
H195     H      0.071880000000     0.552840000000     0.751010000000     0.0443188  
H196     H      0.972610000000     0.483570000000     0.755830000000     0.0447673  
H197     H      0.060930000000     0.485530000000     0.508060000000     0.0448347  
H198     H      0.969880000000     0.565310000000     0.502040000000     0.0445123  
H199     H      0.965420000000     0.552670000000     0.955220000000     0.0417276  
H200     H      0.054550000000     0.470940000000     0.960830000000     0.0412122  
H201     H      0.510210000000     0.457620000000     0.885250000000     0.0442001  
H202     H      0.494950000000     0.578730000000     0.887050000000     0.0466743  
H203     H      0.498450000000     0.580920000000     0.839110000000     0.043789   
H204     H      0.513130000000     0.459670000000     0.837850000000     0.0468005  
H205     H      0.570750000000     0.528640000000     0.589770000000     0.0452949  
H206     H      0.449830000000     0.525330000000     0.589550000000     0.0452439  
H207     H      0.450300000000     0.501240000000     0.634160000000     0.045195   
H208     H      0.571220000000     0.504560000000     0.634460000000     0.0451684  
H209     H      0.890490000000     0.330630000000     0.850460000000     0.045695   
H210     H      0.843130000000     0.409320000000     0.794770000000     0.0446358  
H211     H      0.884580000000     0.458370000000     0.811030000000     0.0468146  
H212     H      0.932950000000     0.379640000000     0.866320000000     0.0445702  
H213     H      0.655840000000     0.429130000000     0.730620000000     0.0443632  
H214     H      0.578990000000     0.379900000000     0.786460000000     0.0457402  
H215     H      0.628270000000     0.338410000000     0.802540000000     0.0445796  
H216     H      0.705290000000     0.388040000000     0.746940000000     0.0457294  
H217     H      0.831260000000     0.240680000000     0.942900000000     0.0438582  
H218     H      0.723050000000     0.295140000000     0.943800000000     0.0467012  
H219     H      0.715360000000     0.282480000000     0.897460000000     0.0447032  
H220     H      0.823890000000     0.228800000000     0.895770000000     0.0456722  
H221     H      0.762730000000     0.330370000000     0.648650000000     0.0446195  
H222     H      0.757790000000     0.208390000000     0.646030000000     0.0454566  
H223     H      0.778480000000     0.205430000000     0.691400000000     0.0457964  
H224     H      0.783240000000     0.327420000000     0.694150000000     0.0448768  
H225     H      0.850990000000     0.361550000000     0.604630000000     0.0417881  
H226     H      0.882980000000     0.383610000000     0.524440000000     0.0402333  
H227     H      0.926300000000     0.433450000000     0.539900000000     0.0423899  
H228     H      0.897960000000     0.406920000000     0.620160000000     0.0420755  
H229     H      0.631900000000     0.331150000000     0.499740000000     0.0458872  
H230     H      0.681410000000     0.413080000000     0.552140000000     0.0448767  
H231     H      0.638450000000     0.460910000000     0.535780000000     0.0458906  
H232     H      0.588740000000     0.379060000000     0.483380000000     0.0444246  
H233     H      0.834790000000     0.670720000000     0.847210000000     0.0444547  
H234     H      0.868150000000     0.648740000000     0.927340000000     0.0449798  
H235     H      0.917200000000     0.607420000000     0.911850000000     0.0442385  
H236     H      0.883150000000     0.626330000000     0.831530000000     0.042508   
H237     H      0.623360000000     0.686940000000     0.917170000000     0.0447754  
H238     H      0.705390000000     0.639590000000     0.970140000000     0.0452877  
H239     H      0.657390000000     0.598610000000     0.989150000000     0.0439957  
H240     H      0.576000000000     0.645930000000     0.935670000000     0.0464603  
H241     H      0.814160000000     0.787170000000     0.773060000000     0.0439115  
H242     H      0.705460000000     0.733900000000     0.770400000000     0.0464371  
H243     H      0.696810000000     0.746040000000     0.817090000000     0.0441821  
H244     H      0.805340000000     0.799760000000     0.819600000000     0.0464745  
H245     H      0.752560000000     0.701730000000     0.565860000000     0.0443761  
H246     H      0.737540000000     0.822920000000     0.566360000000     0.0463671  
H247     H      0.757710000000     0.826040000000     0.520970000000     0.0456674  
H248     H      0.772700000000     0.704840000000     0.520180000000     0.0450458  
H249     H      0.894300000000     0.679730000000     0.679850000000     0.0447201  
H250     H      0.819150000000     0.637810000000     0.620150000000     0.0456925  
H251     H      0.867780000000     0.595380000000     0.604060000000     0.0440416  
H252     H      0.942410000000     0.636180000000     0.664420000000     0.0468967  
H253     H      0.618600000000     0.703920000000     0.713240000000     0.0463761  
H254     H      0.676770000000     0.619050000000     0.668020000000     0.0447427  
H255     H      0.638150000000     0.570240000000     0.687950000000     0.0456551  
H256     H      0.579790000000     0.654930000000     0.733240000000     0.0447933  
H257     H      0.654410000000     0.890520000000     0.653430000000     0.0432731  
H258     H      0.687370000000     0.869020000000     0.733570000000     0.0428484  
H259     H      0.643150000000     0.917600000000     0.748930000000     0.0426623  
H260     H      0.607000000000     0.935380000000     0.669040000000     0.0428978  
H261     H      0.671140000000     0.184330000000     0.731500000000     0.042605   
H262     H      0.644110000000     0.156040000000     0.811620000000     0.0416796  
H263     H      0.597570000000     0.110010000000     0.795750000000     0.0422294  
H264     H      0.620780000000     0.142340000000     0.715790000000     0.0413887  
H265     H      0.579090000000     0.019210000000     0.879500000000     0.0455256  
H266     H      0.458830000000     0.033560000000     0.879510000000     0.0453834  
H267     H      0.456160000000     0.012230000000     0.834560000000     0.0452602  
H268     H      0.576470000000     0.998580000000     0.833970000000     0.0461493  
H269     H      0.506990000000     0.953560000000     0.585850000000     0.0427267  
H270     H      0.520420000000     0.074610000000     0.578840000000     0.0471485  
H271     H      0.516780000000     0.081550000000     0.626000000000     0.0432935  
H272     H      0.503390000000     0.960600000000     0.633410000000     0.0466797  
H273     H      0.574590000000     0.876370000000     0.460730000000     0.0432365  
H274     H      0.661250000000     0.961190000000     0.959660000000     0.0446577  
H275     H      0.704980000000     0.915540000000     0.941360000000     0.0444736  
H276     H      0.618110000000     0.830920000000     0.940250000000     0.0433746  
H277     H      0.643030000000     0.128110000000     0.961770000000     0.0426578  
H278     H      0.599810000000     0.120480000000     0.540850000000     0.0443017  
H279     H      0.649240000000     0.162070000000     0.556390000000     0.0440439  
H280     H      0.690790000000     0.172960000000     0.477070000000     0.0434639  
H281     H      0.154930000000     0.602570000000     0.851840000000     0.0450859  
H282     H      0.076520000000     0.649620000000     0.907550000000     0.0467675  
H283     H      0.125080000000     0.690960000000     0.924590000000     0.0456287  
H284     H      0.203710000000     0.643860000000     0.869040000000     0.0457583  
H285     H      0.324930000000     0.622030000000     0.940220000000     0.0417377  
H286     H      0.394400000000     0.714300000000     0.966600000000     0.0439849  
H287     H      0.439220000000     0.669540000000     0.984800000000     0.0418056  
H288     H      0.368320000000     0.576810000000     0.961540000000     0.0419612  
H289     H      0.349290000000     0.915190000000     0.908360000000     0.0436035  
H290     H      0.399430000000     0.832750000000     0.960120000000     0.0458306  
H291     H      0.440620000000     0.880590000000     0.477910000000     0.0447608  
H292     H      0.391390000000     0.963500000000     0.926070000000     0.0453747  
H293     H      0.296640000000     0.711680000000     0.818020000000     0.0451817  
H294     H      0.232980000000     0.815370000000     0.820080000000     0.0455026  
H295     H      0.216480000000     0.806820000000     0.773480000000     0.0428956  
H296     H      0.281700000000     0.704320000000     0.771740000000     0.0444907  
H297     H      0.240210000000     0.718530000000     0.570190000000     0.0444005  
H298     H      0.296380000000     0.826520000000     0.568860000000     0.0444789  
H299     H      0.282610000000     0.832540000000     0.522120000000     0.0436719  
H300     H      0.223840000000     0.726140000000     0.523480000000     0.0426037  
H301     H      0.121950000000     0.692750000000     0.669590000000     0.04486    
H302     H      0.206540000000     0.634510000000     0.624400000000     0.0456972  
H303     H      0.158420000000     0.595660000000     0.603930000000     0.044165   
H304     H      0.074020000000     0.654170000000     0.649100000000     0.0464487  
H305     H      0.386310000000     0.573500000000     0.683070000000     0.0453431  
H306     H      0.437930000000     0.654420000000     0.735190000000     0.0449909  
H307     H      0.398590000000     0.704160000000     0.716830000000     0.0463823  
H308     H      0.347250000000     0.623310000000     0.664550000000     0.0446851  
H309     H      0.377640000000     0.876790000000     0.661500000000     0.044061   
H310     H      0.338250000000     0.866550000000     0.741340000000     0.0433427  
H311     H      0.384900000000     0.913970000000     0.755470000000     0.0421377  
H312     H      0.426270000000     0.920120000000     0.675950000000     0.0440721  
H313     H      0.123220000000     0.327680000000     0.837940000000     0.0461585  
H314     H      0.178430000000     0.409350000000     0.788180000000     0.0448526  
H315     H      0.139970000000     0.459330000000     0.807040000000     0.0460832  
H316     H      0.084650000000     0.377470000000     0.856630000000     0.0452355  
H317     H      0.390420000000     0.336810000000     0.798780000000     0.0444835  
H318     H      0.315820000000     0.386860000000     0.741730000000     0.0459763  
H319     H      0.365520000000     0.428780000000     0.727160000000     0.0445062  
H320     H      0.440070000000     0.379120000000     0.784370000000     0.0457809  
H321     H      0.356500000000     0.186860000000     0.727610000000     0.0429818  
H322     H      0.372610000000     0.153630000000     0.808260000000     0.0417201  
H323     H      0.419380000000     0.106780000000     0.794070000000     0.0425084  
H324     H      0.406970000000     0.143710000000     0.713870000000     0.0421301  
H325     H      0.294520000000     0.291990000000     0.937040000000     0.0470574  
H326     H      0.181140000000     0.249550000000     0.935900000000     0.0434895  
H327     H      0.186580000000     0.239960000000     0.888210000000     0.0460088  
H328     H      0.300290000000     0.281280000000     0.890600000000     0.0449701  
H329     H      0.232260000000     0.325960000000     0.686900000000     0.0454139  
H330     H      0.241000000000     0.204130000000     0.685230000000     0.0459231  
H331     H      0.260530000000     0.206770000000     0.639790000000     0.0457761  
H332     H      0.251250000000     0.328580000000     0.640940000000     0.0449994  
H333     H      0.197130000000     0.410020000000     0.563770000000     0.0450858  
H334     H      0.110120000000     0.325510000000     0.561540000000     0.0440913  
H335     H      0.067080000000     0.370220000000     0.583560000000     0.0438817  
H336     H      0.154750000000     0.454060000000     0.584380000000     0.0450431  
H337     H      0.344600000000     0.403430000000     0.550620000000     0.0446327  
H338     H      0.390270000000     0.326730000000     0.992940000000     0.0454593  
H339     H      0.435650000000     0.374890000000     0.979620000000     0.0440629  
H340     H      0.389340000000     0.451200000000     0.537320000000     0.0462972  
H341     H      0.386420000000     0.123370000000     0.961170000000     0.0434596  
H342     H      0.424460000000     0.114510000000     0.541470000000     0.0445384  
H343     H      0.372730000000     0.154630000000     0.555850000000     0.0437353  
H344     H      0.336550000000     0.166160000000     0.975320000000     0.0443204  
H345     H      0.954560000000     0.156260000000     0.832900000000     0.0450231  
H346     H      0.866720000000     0.073090000000     0.840000000000     0.0443683  
H347     H      0.824210000000     0.115240000000     0.815240000000     0.0438175  
H348     H      0.912820000000     0.197720000000     0.809370000000     0.0453749  
H349     H      0.852990000000     0.900560000000     0.930520000000     0.0450971  
H350     H      0.898510000000     0.819160000000     0.875890000000     0.0455569  
H351     H      0.940800000000     0.867280000000     0.858530000000     0.0445006  
H352     H      0.894890000000     0.948220000000     0.913370000000     0.0468611  
H353     H      0.157410000000     0.958910000000     0.884710000000     0.0439079  
H354     H      0.075460000000     0.869430000000     0.881420000000     0.0429041  
H355     H      0.120560000000     0.826210000000     0.902610000000     0.0432596  
H356     H      0.202700000000     0.915560000000     0.903690000000     0.0434473  
H357     H      0.160490000000     0.078330000000     0.843300000000     0.0416502  
H358     H      0.068250000000     0.133400000000     0.804080000000     0.0452842  
H359     H      0.111270000000     0.177000000000     0.783170000000     0.0424758  
H360     H      0.204620000000     0.120670000000     0.819740000000     0.0413455  
H361     H      0.957380000000     0.051820000000     0.713880000000     0.0449518  
H362     H      0.061180000000     0.989640000000     0.711240000000     0.0452381  
H363     H      0.053980000000     0.973640000000     0.758120000000     0.0433259  
H364     H      0.951620000000     0.038110000000     0.760530000000     0.0445004  
H365     H      0.054560000000     0.975680000000     0.507220000000     0.0428905  
H366     H      0.951810000000     0.039470000000     0.509250000000     0.0441632  
H367     H      0.958500000000     0.054500000000     0.962850000000     0.0439378  
H368     H      0.062740000000     0.993040000000     0.960590000000     0.0454611  
H369     H      0.951820000000     0.152400000000     0.571620000000     0.0465945  
H370     H      0.863030000000     0.092220000000     0.611090000000     0.044516   
H371     H      0.817440000000     0.136120000000     0.592150000000     0.0459264  
H372     H      0.906630000000     0.195750000000     0.552720000000     0.0451482  
H373     H      0.921210000000     0.921400000000     0.671560000000     0.042893   
H374     H      0.897610000000     0.894370000000     0.590730000000     0.0416481  
H375     H      0.848570000000     0.849830000000     0.605240000000     0.042573   
H376     H      0.876440000000     0.872650000000     0.686040000000     0.0417598  
H377     H      0.203960000000     0.912150000000     0.644750000000     0.0444531  
H378     H      0.120460000000     0.824380000000     0.648830000000     0.0439491  
H379     H      0.073890000000     0.867940000000     0.629800000000     0.0435098  
H380     H      0.156990000000     0.956230000000     0.628240000000     0.0442195  
H381     H      0.075700000000     0.128900000000     0.549510000000     0.0460754  
H382     H      0.152710000000     0.094870000000     0.610440000000     0.043988   
H383     H      0.199450000000     0.138510000000     0.592730000000     0.0452942  
H384     H      0.121560000000     0.173470000000     0.532620000000     0.0446847  
N1       N      0.027670000000     0.502660000000     0.203240000000    -0.167796   
N2       N      0.021080000000     0.520540000000     0.256670000000    -0.166788   
N3       N      0.016360000000     0.527190000000     0.008470000000    -0.16561    
N4       N      0.009910000000     0.511020000000     0.454640000000    -0.168734   
N5       N      0.502440000000     0.517840000000     0.389960000000    -0.165667   
N6       N      0.506120000000     0.520710000000     0.334640000000    -0.16656    
N7       N      0.510250000000     0.528930000000     0.086080000000    -0.166222   
N8       N      0.510810000000     0.500810000000     0.137840000000    -0.166536   
N9       N      0.863850000000     0.365980000000     0.321000000000    -0.166723   
N10      N      0.912540000000     0.422750000000     0.339800000000    -0.165402   
N11      N      0.613540000000     0.407860000000     0.257180000000    -0.166591   
N12      N      0.670720000000     0.359940000000     0.276170000000    -0.165455   
N13      N      0.778160000000     0.269280000000     0.447050000000    -0.166128   
N14      N      0.769030000000     0.254950000000     0.392840000000    -0.165294   
N15      N      0.758150000000     0.269660000000     0.143800000000    -0.166801   
N16      N      0.782290000000     0.266180000000     0.196480000000    -0.165935   
N17      N      0.863660000000     0.369610000000     0.063400000000    -0.166762   
N18      N      0.914940000000     0.423820000000     0.081150000000    -0.166525   
N19      N      0.660300000000     0.368350000000     0.027230000000    -0.165275   
N20      N      0.610270000000     0.423900000000     0.008010000000    -0.16468    
N21      N      0.848470000000     0.663710000000     0.388450000000    -0.167078   
N22      N      0.904610000000     0.614830000000     0.370380000000    -0.168616   
N23      N      0.668080000000     0.666640000000     0.442170000000    -0.166212   
N24      N      0.612950000000     0.619120000000     0.464060000000    -0.167372   
N25      N      0.760570000000     0.759870000000     0.267970000000    -0.166456   
N26      N      0.750000000000     0.774180000000     0.322030000000    -0.166049   
N27      N      0.743680000000     0.762070000000     0.069800000000    -0.166475   
N28      N      0.767270000000     0.765770000000     0.017030000000    -0.166326   
N29      N      0.852930000000     0.662430000000     0.151280000000    -0.164235   
N30      N      0.909000000000     0.612430000000     0.132790000000    -0.165152   
N31      N      0.650890000000     0.665440000000     0.188960000000    -0.164545   
N32      N      0.605920000000     0.608590000000     0.212420000000    -0.164266   
N33      N      0.673420000000     0.875840000000     0.192420000000    -0.167318   
N34      N      0.621200000000     0.928900000000     0.210190000000    -0.168167   
N35      N      0.661620000000     0.172840000000     0.272760000000    -0.164909   
N36      N      0.606090000000     0.122570000000     0.254540000000    -0.164613   
N37      N      0.519270000000     0.028530000000     0.382880000000    -0.169267   
N38      N      0.516180000000     0.004310000000     0.330680000000    -0.169673   
N39      N      0.513950000000     0.013180000000     0.078530000000    -0.168373   
N40      N      0.509900000000     0.021930000000     0.133460000000    -0.168284   
N41      N      0.614610000000     0.922230000000     0.461820000000    -0.164891   
N42      N      0.664840000000     0.869770000000     0.439150000000    -0.164705   
N43      N      0.617480000000     0.121860000000     0.000030000000    -0.169298   
N44      N      0.673200000000     0.170940000000     0.017820000000    -0.168593   
N45      N      0.111880000000     0.622770000000     0.378290000000    -0.166327   
N46      N      0.168280000000     0.670630000000     0.398270000000    -0.166287   
N47      N      0.356690000000     0.671270000000     0.451780000000    -0.168046   
N48      N      0.406710000000     0.620170000000     0.474610000000    -0.169119   
N49      N      0.370450000000     0.870400000000     0.433130000000    -0.166956   
N50      N      0.418790000000     0.926030000000     0.453900000000    -0.16567    
N51      N      0.266930000000     0.764630000000     0.322530000000    -0.164313   
N52      N      0.248260000000     0.755300000000     0.269030000000    -0.166197   
N53      N      0.270260000000     0.771640000000     0.072910000000    -0.165717   
N54      N      0.252230000000     0.779720000000     0.019380000000    -0.166649   
N55      N      0.168060000000     0.666570000000     0.148850000000    -0.166262   
N56      N      0.112490000000     0.621670000000     0.124910000000    -0.167254   
N57      N      0.414970000000     0.609790000000     0.210970000000    -0.164294   
N58      N      0.369460000000     0.667720000000     0.189290000000    -0.164324   
N59      N      0.354720000000     0.868070000000     0.200400000000    -0.166441   
N60      N      0.409460000000     0.919720000000     0.216910000000    -0.167669   
N61      N      0.153770000000     0.364550000000     0.311410000000    -0.166832   
N62      N      0.109140000000     0.422340000000     0.333340000000    -0.165596   
N63      N      0.349170000000     0.358500000000     0.271550000000    -0.165967   
N64      N      0.406660000000     0.407370000000     0.254570000000    -0.166998   
N65      N      0.360540000000     0.173120000000     0.268980000000    -0.164715   
N66      N      0.416270000000     0.121410000000     0.252800000000    -0.164054   
N67      N      0.237460000000     0.270730000000     0.440380000000    -0.166416   
N68      N      0.244270000000     0.259090000000     0.385730000000    -0.165429   
N69      N      0.235670000000     0.264860000000     0.189810000000    -0.16652    
N70      N      0.258160000000     0.268000000000     0.136890000000    -0.167221   
N71      N      0.156960000000     0.364270000000     0.060850000000    -0.164359   
N72      N      0.107510000000     0.415610000000     0.085670000000    -0.164934   
N73      N      0.363470000000     0.361440000000     0.022670000000    -0.16588    
N74      N      0.415810000000     0.417070000000     0.007020000000    -0.165343   
N75      N      0.409660000000     0.116740000000     0.000130000000    -0.169077   
N76      N      0.351460000000     0.163940000000     0.016600000000    -0.1685     
N77      N      0.913770000000     0.111570000000     0.338520000000    -0.167327   
N78      N      0.865210000000     0.159710000000     0.310570000000    -0.166709   
N79      N      0.871850000000     0.856370000000     0.404210000000    -0.16717    
N80      N      0.920570000000     0.911720000000     0.384060000000    -0.166438   
N81      N      0.113210000000     0.917240000000     0.381350000000    -0.167375   
N82      N      0.164890000000     0.867770000000     0.404690000000    -0.166796   
N83      N      0.111170000000     0.102930000000     0.325630000000    -0.167029   
N84      N      0.160900000000     0.151760000000     0.299880000000    -0.167931   
N85      N      0.009990000000     0.022300000000     0.209000000000    -0.164327   
N86      N      0.002310000000     0.004650000000     0.262880000000    -0.165544   
N87      N      0.002650000000     0.006260000000     0.011750000000    -0.165359   
N88      N      0.011440000000     0.025580000000     0.458210000000    -0.164059   
N89      N      0.911040000000     0.118520000000     0.092850000000    -0.164944   
N90      N      0.858340000000     0.169340000000     0.070620000000    -0.164005   
N91      N      0.912530000000     0.911620000000     0.130020000000    -0.163653   
N92      N      0.858770000000     0.858100000000     0.146760000000    -0.164064   
N93      N      0.165790000000     0.864980000000     0.148480000000    -0.164063   
N94      N      0.111760000000     0.915480000000     0.127690000000    -0.16414    
N95      N      0.110460000000     0.108490000000     0.081540000000    -0.16504    
N96      N      0.164110000000     0.159680000000     0.061300000000    -0.164788   
N97      N      0.027670000000     0.502660000000     0.703240000000    -0.167821   
N98      N      0.021080000000     0.520540000000     0.756680000000    -0.166847   
N99      N      0.016360000000     0.527190000000     0.508470000000    -0.165924   
N100     N      0.009910000000     0.511020000000     0.954640000000    -0.16884    
N101     N      0.502430000000     0.517840000000     0.889960000000    -0.165681   
N102     N      0.506120000000     0.520710000000     0.834640000000    -0.166548   
N103     N      0.510250000000     0.528930000000     0.586080000000    -0.166223   
N104     N      0.510810000000     0.500810000000     0.637840000000    -0.166533   
N105     N      0.863850000000     0.365980000000     0.821000000000    -0.166747   
N106     N      0.912540000000     0.422750000000     0.839800000000    -0.165428   
N107     N      0.613540000000     0.407860000000     0.757180000000    -0.166562   
N108     N      0.670720000000     0.359940000000     0.776170000000    -0.165493   
N109     N      0.778160000000     0.269270000000     0.947050000000    -0.16614    
N110     N      0.769030000000     0.254950000000     0.892840000000    -0.165303   
N111     N      0.758150000000     0.269660000000     0.643800000000    -0.166819   
N112     N      0.782290000000     0.266180000000     0.696480000000    -0.165934   
N113     N      0.863670000000     0.369610000000     0.563400000000    -0.166721   
N114     N      0.914940000000     0.423820000000     0.581150000000    -0.166525   
N115     N      0.660300000000     0.368350000000     0.527230000000    -0.165183   
N116     N      0.610270000000     0.423900000000     0.508010000000    -0.164958   
N117     N      0.848470000000     0.663710000000     0.888450000000    -0.166995   
N118     N      0.904610000000     0.614830000000     0.870380000000    -0.168632   
N119     N      0.668080000000     0.666640000000     0.942170000000    -0.166249   
N120     N      0.612950000000     0.619120000000     0.964060000000    -0.167386   
N121     N      0.760570000000     0.759870000000     0.767980000000    -0.166376   
N122     N      0.750000000000     0.774180000000     0.822030000000    -0.166071   
N123     N      0.743680000000     0.762070000000     0.569800000000    -0.166485   
N124     N      0.767260000000     0.765770000000     0.517030000000    -0.166442   
N125     N      0.852930000000     0.662430000000     0.651280000000    -0.164245   
N126     N      0.909000000000     0.612430000000     0.632790000000    -0.165111   
N127     N      0.650890000000     0.665440000000     0.688960000000    -0.164577   
N128     N      0.605920000000     0.608590000000     0.712420000000    -0.164286   
N129     N      0.673420000000     0.875840000000     0.692420000000    -0.167367   
N130     N      0.621200000000     0.928900000000     0.710180000000    -0.168105   
N131     N      0.661630000000     0.172840000000     0.772760000000    -0.164958   
N132     N      0.606090000000     0.122570000000     0.754540000000    -0.164615   
N133     N      0.519270000000     0.028530000000     0.882880000000    -0.169252   
N134     N      0.516180000000     0.004310000000     0.830680000000    -0.169685   
N135     N      0.513950000000     0.013180000000     0.578530000000    -0.168427   
N136     N      0.509900000000     0.021930000000     0.633460000000    -0.168285   
N137     N      0.614610000000     0.922230000000     0.961820000000    -0.164897   
N138     N      0.664840000000     0.869770000000     0.939150000000    -0.164691   
N139     N      0.617480000000     0.121860000000     0.500030000000    -0.169566   
N140     N      0.673200000000     0.170940000000     0.517820000000    -0.16867    
N141     N      0.111880000000     0.622770000000     0.878290000000    -0.166326   
N142     N      0.168280000000     0.670630000000     0.898270000000    -0.166341   
N143     N      0.356690000000     0.671270000000     0.951780000000    -0.168043   
N144     N      0.406710000000     0.620160000000     0.974610000000    -0.16916    
N145     N      0.370450000000     0.870400000000     0.933130000000    -0.166999   
N146     N      0.418790000000     0.926030000000     0.953900000000    -0.165688   
N147     N      0.266930000000     0.764630000000     0.822530000000    -0.16427    
N148     N      0.248260000000     0.755300000000     0.769030000000    -0.166187   
N149     N      0.270260000000     0.771640000000     0.572910000000    -0.165713   
N150     N      0.252230000000     0.779710000000     0.519380000000    -0.166789   
N151     N      0.168060000000     0.666570000000     0.648850000000    -0.166219   
N152     N      0.112490000000     0.621670000000     0.624910000000    -0.167263   
N153     N      0.414970000000     0.609790000000     0.710970000000    -0.164275   
N154     N      0.369450000000     0.667720000000     0.689290000000    -0.164362   
N155     N      0.354720000000     0.868070000000     0.700400000000    -0.166441   
N156     N      0.409460000000     0.919720000000     0.716910000000    -0.167651   
N157     N      0.153770000000     0.364560000000     0.811410000000    -0.166848   
N158     N      0.109140000000     0.422340000000     0.833330000000    -0.165563   
N159     N      0.349170000000     0.358510000000     0.771550000000    -0.165944   
N160     N      0.406660000000     0.407370000000     0.754570000000    -0.167002   
N161     N      0.360540000000     0.173120000000     0.768980000000    -0.164731   
N162     N      0.416270000000     0.121410000000     0.752800000000    -0.164093   
N163     N      0.237460000000     0.270720000000     0.940380000000    -0.166448   
N164     N      0.244270000000     0.259090000000     0.885730000000    -0.165345   
N165     N      0.235670000000     0.264860000000     0.689810000000    -0.166519   
N166     N      0.258160000000     0.268000000000     0.636890000000    -0.167249   
N167     N      0.156960000000     0.364270000000     0.560850000000    -0.164361   
N168     N      0.107510000000     0.415610000000     0.585670000000    -0.164954   
N169     N      0.363470000000     0.361440000000     0.522670000000    -0.165776   
N170     N      0.415810000000     0.417070000000     0.507020000000    -0.165646   
N171     N      0.409660000000     0.116740000000     0.500130000000    -0.16928    
N172     N      0.351460000000     0.163950000000     0.516600000000    -0.168602   
N173     N      0.913770000000     0.111570000000     0.838520000000    -0.167328   
N174     N      0.865210000000     0.159710000000     0.810570000000    -0.166732   
N175     N      0.871850000000     0.856370000000     0.904210000000    -0.167191   
N176     N      0.920570000000     0.911720000000     0.884060000000    -0.166431   
N177     N      0.113210000000     0.917240000000     0.881350000000    -0.167379   
N178     N      0.164890000000     0.867770000000     0.904690000000    -0.166792   
N179     N      0.111170000000     0.102940000000     0.825630000000    -0.16703    
N180     N      0.160900000000     0.151760000000     0.799880000000    -0.16793    
N181     N      0.009990000000     0.022300000000     0.709000000000    -0.16439    
N182     N      0.002310000000     0.004650000000     0.762880000000    -0.165542   
N183     N      0.002650000000     0.006250000000     0.511750000000    -0.165678   
N184     N      0.011450000000     0.025580000000     0.958210000000    -0.164146   
N185     N      0.911040000000     0.118520000000     0.592850000000    -0.164945   
N186     N      0.858340000000     0.169340000000     0.570620000000    -0.164011   
N187     N      0.912530000000     0.911620000000     0.630020000000    -0.163583   
N188     N      0.858780000000     0.858100000000     0.646770000000    -0.16407    
N189     N      0.165790000000     0.864980000000     0.648480000000    -0.164077   
N190     N      0.111760000000     0.915480000000     0.627690000000    -0.164116   
N191     N      0.110460000000     0.108490000000     0.581540000000    -0.165072   
N192     N      0.164110000000     0.159680000000     0.561300000000    -0.164797   
O1       O      0.009320000000     0.013570000000     0.110730000000    -0.370887   
O2       O      0.087460000000     0.067260000000     0.113810000000    -0.29171    
O3       O      0.985850000000     0.030330000000     0.051530000000    -0.304865   
O4       O      0.054520000000     0.931540000000     0.108150000000    -0.285708   
O5       O      0.054230000000     0.077440000000     0.077270000000    -0.304982   
O6       O      0.089780000000     0.976520000000     0.126840000000    -0.295856   
O7       O      0.016150000000     0.975080000000     0.051520000000    -0.286698   
O8       O      0.937890000000     0.970900000000     0.135450000000    -0.292137   
O9       O      0.970620000000     0.094270000000     0.092590000000    -0.305968   
O10      O      0.959680000000     0.934610000000     0.102510000000    -0.283883   
O11      O      0.927870000000     0.063370000000     0.115900000000    -0.290662   
O12      O      0.980270000000     0.033210000000     0.169540000000    -0.294614   
O13      O      0.042510000000     0.023460000000     0.169390000000    -0.291246   
O14      O      0.013040000000     0.012680000000     0.361010000000    -0.380534   
O15      O      0.044730000000     0.027580000000     0.418970000000    -0.291603   
O16      O      0.929360000000     0.056930000000     0.361910000000    -0.297043   
O17      O      0.054190000000     0.073960000000     0.326030000000    -0.31142    
O18      O      0.982220000000     0.036090000000     0.418480000000    -0.294749   
O19      O      0.091890000000     0.064480000000     0.360500000000    -0.293594   
O20      O      0.974330000000     0.093450000000     0.346530000000    -0.310147   
O21      O      0.017870000000     0.974270000000     0.302450000000    -0.28901    
O22      O      0.942850000000     0.972420000000     0.385080000000    -0.304234   
O23      O      0.984470000000     0.027750000000     0.302930000000    -0.304061   
O24      O      0.967760000000     0.932410000000     0.355770000000    -0.292164   
O25      O      0.058820000000     0.932450000000     0.358500000000    -0.292833   
O26      O      0.091010000000     0.977680000000     0.379390000000    -0.303072   
O27      O      0.255460000000     0.266040000000     0.038980000000    -0.375407   
O28      O      0.178930000000     0.213250000000     0.036730000000    -0.29078    
O29      O      0.313620000000     0.192500000000     0.047890000000    -0.300862   
O30      O      0.269510000000     0.276160000000     0.478670000000    -0.31415    
O31      O      0.222860000000     0.186830000000     0.062210000000    -0.29785    
O32      O      0.208320000000     0.264010000000     0.981740000000    -0.289188   
O33      O      0.315490000000     0.215470000000     0.007090000000    -0.309543   
O34      O      0.310420000000     0.342990000000     0.046120000000    -0.297591   
O35      O      0.271390000000     0.237450000000     0.098150000000    -0.304396   
O36      O      0.333290000000     0.304810000000     0.015220000000    -0.304894   
O37      O      0.264580000000     0.300310000000     0.097580000000    -0.299492   
O38      O      0.218010000000     0.345550000000     0.055360000000    -0.298002   
O39      O      0.172760000000     0.307410000000     0.040040000000    -0.287789   
O40      O      0.249330000000     0.261380000000     0.287330000000    -0.378308   
O41      O      0.329280000000     0.212800000000     0.298580000000    -0.288111   
O42      O      0.217270000000     0.174860000000     0.283590000000    -0.296545   
O43      O      0.218180000000     0.245600000000     0.345520000000    -0.301903   
O44      O      0.302450000000     0.197920000000     0.260280000000    -0.297794   
O45      O      0.278730000000     0.262840000000     0.346890000000    -0.293828   
O46      O      0.171450000000     0.214700000000     0.294290000000    -0.305138   
O47      O      0.201390000000     0.343200000000     0.283880000000    -0.298987   
O48      O      0.234230000000     0.231460000000     0.228750000000    -0.299532   
O49      O      0.174120000000     0.302830000000     0.311350000000    -0.305341   
O50      O      0.232190000000     0.294880000000     0.229870000000    -0.301859   
O51      O      0.289210000000     0.336000000000     0.267270000000    -0.303132   
O52      O      0.327180000000     0.307390000000     0.296150000000    -0.292113   
O53      O      0.264360000000     0.764980000000     0.170850000000    -0.3753     
O54      O      0.183320000000     0.810010000000     0.170440000000    -0.290715   
O55      O      0.318600000000     0.840020000000     0.168100000000    -0.299314   
O56      O      0.274780000000     0.739880000000     0.229900000000    -0.306061   
O57      O      0.227630000000     0.845980000000     0.151890000000    -0.292986   
O58      O      0.220610000000     0.771040000000     0.228500000000    -0.289133   
O59      O      0.319460000000     0.814790000000     0.208490000000    -0.300833   
O60      O      0.318850000000     0.687770000000     0.163640000000    -0.293754   
O61      O      0.281370000000     0.799600000000     0.113070000000    -0.29706    
O62      O      0.343050000000     0.726950000000     0.193500000000    -0.300321   
O63      O      0.275230000000     0.736530000000     0.111120000000    -0.297079   
O64      O      0.228590000000     0.688140000000     0.149650000000    -0.302141   
O65      O      0.185980000000     0.718140000000     0.174370000000    -0.292956   
O66      O      0.265290000000     0.771250000000     0.420440000000    -0.377458   
O67      O      0.225900000000     0.848760000000     0.404290000000    -0.301183   
O68      O      0.187550000000     0.720590000000     0.424620000000    -0.295461   
O69      O      0.286470000000     0.738940000000     0.362140000000    -0.293572   
O70      O      0.183860000000     0.812190000000     0.425110000000    -0.292383   
O71      O      0.268000000000     0.799690000000     0.360990000000    -0.295167   
O72      O      0.228370000000     0.694440000000     0.396810000000    -0.300234   
O73      O      0.329270000000     0.729350000000     0.453050000000    -0.311246   
O74      O      0.224390000000     0.764170000000     0.479150000000    -0.291988   
O75      O      0.313840000000     0.690490000000     0.420060000000    -0.295978   
O76      O      0.279450000000     0.794050000000     0.980330000000    -0.307622   
O77      O      0.341280000000     0.813980000000     0.440350000000    -0.313333   
O78      O      0.317900000000     0.850760000000     0.409050000000    -0.295257   
O79      O      0.516250000000     0.023430000000     0.480050000000    -0.377543   
O80      O      0.437610000000     0.075570000000     0.470740000000    -0.303569   
O81      O      0.516450000000     0.041540000000     0.038850000000    -0.324309   
O82      O      0.467440000000     0.944460000000     0.981610000000    -0.292673   
O83      O      0.468120000000     0.092290000000     0.007040000000    -0.312489   
O84      O      0.442130000000     0.986670000000     0.454060000000    -0.300895   
O85      O      0.512980000000     0.978750000000     0.038650000000    -0.289902   
O86      O      0.595600000000     0.984160000000     0.463770000000    -0.297521   
O87      O      0.559840000000     0.095360000000     0.005760000000    -0.314472   
O88      O      0.558930000000     0.940240000000     0.982380000000    -0.28934    
O89      O      0.594300000000     0.076360000000     0.471710000000    -0.302607   
O90      O      0.550570000000     0.031970000000     0.422270000000    -0.305803   
O91      O      0.488850000000     0.042630000000     0.421260000000    -0.308577   
O92      O      0.512580000000     0.018560000000     0.232840000000    -0.372982   
O93      O      0.468310000000     0.943560000000     0.211220000000    -0.30928    
O94      O      0.483790000000     0.003370000000     0.291820000000    -0.308968   
O95      O      0.595650000000     0.972740000000     0.238970000000    -0.297628   
O96      O      0.432620000000     0.968560000000     0.242790000000    -0.296422   
O97      O      0.560970000000     0.949720000000     0.206190000000    -0.308349   
O98      O      0.546080000000     0.998540000000     0.291010000000    -0.306632   
O99      O      0.559940000000     0.099740000000     0.226060000000    -0.285114   
O100     O      0.440960000000     0.061850000000     0.257530000000    -0.295658   
O101     O      0.582410000000     0.062670000000     0.258270000000    -0.296827   
O102     O      0.464310000000     0.099040000000     0.225690000000    -0.284965   
O103     O      0.512490000000     0.057480000000     0.172550000000    -0.29147    
O104     O      0.508040000000     0.994680000000     0.173690000000    -0.318542   
O105     O      0.754870000000     0.762730000000     0.168330000000    -0.372271   
O106     O      0.696330000000     0.816350000000     0.199290000000    -0.305443   
O107     O      0.799640000000     0.833290000000     0.141650000000    -0.293785   
O108     O      0.793050000000     0.766360000000     0.228080000000    -0.291197   
O109     O      0.710140000000     0.845250000000     0.161380000000    -0.296725   
O110     O      0.733030000000     0.748740000000     0.228390000000    -0.309198   
O111     O      0.835000000000     0.811780000000     0.174870000000    -0.286255   
O112     O      0.793190000000     0.686380000000     0.148440000000    -0.298885   
O113     O      0.736860000000     0.792930000000     0.109230000000    -0.302337   
O114     O      0.833800000000     0.715590000000     0.175280000000    -0.287033   
O115     O      0.739970000000     0.729730000000     0.109330000000    -0.298691   
O116     O      0.703020000000     0.683850000000     0.164390000000    -0.295283   
O117     O      0.672580000000     0.726980000000     0.188140000000    -0.300388   
O118     O      0.760960000000     0.768410000000     0.419700000000    -0.382211   
O119     O      0.817490000000     0.841310000000     0.426900000000    -0.300659   
O120     O      0.812120000000     0.716360000000     0.381410000000    -0.306628   
O121     O      0.781230000000     0.736310000000     0.477750000000    -0.30013    
O122     O      0.842010000000     0.799300000000     0.399090000000    -0.307177   
O123     O      0.771510000000     0.798880000000     0.478000000000    -0.300762   
O124     O      0.816110000000     0.693410000000     0.422180000000    -0.300926   
O125     O      0.684380000000     0.719310000000     0.417400000000    -0.294742   
O126     O      0.774610000000     0.793230000000     0.361240000000    -0.309877   
O127     O      0.728120000000     0.690270000000     0.441630000000    -0.301199   
O128     O      0.718910000000     0.765080000000     0.362260000000    -0.290993   
O129     O      0.680570000000     0.813070000000     0.418350000000    -0.289477   
O130     O      0.725570000000     0.848660000000     0.436720000000    -0.297124   
O131     O      0.765400000000     0.272140000000     0.045750000000    -0.378418   
O132     O      0.797920000000     0.191960000000     0.067150000000    -0.297294   
O133     O      0.807730000000     0.261090000000     0.987930000000    -0.2912     
O134     O      0.710170000000     0.222460000000     0.009790000000    -0.309232   
O135     O      0.843510000000     0.223440000000     0.046260000000    -0.289016   
O136     O      0.708220000000     0.199180000000     0.050620000000    -0.302508   
O137     O      0.753680000000     0.292060000000     0.485410000000    -0.308852   
O138     O      0.712840000000     0.350210000000     0.051600000000    -0.29483    
O139     O      0.844060000000     0.318980000000     0.037860000000    -0.288717   
O140     O      0.687550000000     0.309680000000     0.023050000000    -0.30458    
O141     O      0.804740000000     0.345480000000     0.067160000000    -0.299812   
O142     O      0.750930000000     0.303120000000     0.105090000000    -0.300302   
O143     O      0.748040000000     0.240010000000     0.104110000000    -0.302266   
O144     O      0.769720000000     0.262180000000     0.294070000000    -0.37632    
O145     O      0.849290000000     0.221290000000     0.302970000000    -0.30788    
O146     O      0.721400000000     0.195290000000     0.267250000000    -0.297227   
O147     O      0.736450000000     0.262640000000     0.353370000000    -0.293048   
O148     O      0.808760000000     0.177230000000     0.290560000000    -0.294279   
O149     O      0.795820000000     0.241810000000     0.352870000000    -0.30342    
O150     O      0.689350000000     0.214380000000     0.302670000000    -0.288259   
O151     O      0.731080000000     0.337730000000     0.273660000000    -0.301511   
O152     O      0.786650000000     0.232330000000     0.235200000000    -0.297431   
O153     O      0.691490000000     0.308720000000     0.301230000000    -0.291047   
O154     O      0.787390000000     0.295760000000     0.236670000000    -0.300332   
O155     O      0.819240000000     0.343480000000     0.291390000000    -0.297882   
O156     O      0.839790000000     0.305730000000     0.323240000000    -0.306152   
O157     O      0.510800000000     0.522530000000     0.988630000000    -0.374766   
O158     O      0.438730000000     0.477460000000     0.010830000000    -0.303436   
O159     O      0.509870000000     0.485840000000     0.429860000000    -0.292004   
O160     O      0.468290000000     0.603610000000     0.476030000000    -0.308136   
O161     O      0.466230000000     0.439200000000     0.481850000000    -0.290618   
O162     O      0.426570000000     0.563500000000     0.992570000000    -0.30114    
O163     O      0.497660000000     0.548180000000     0.429570000000    -0.305676   
O164     O      0.591600000000     0.573460000000     0.993730000000    -0.297129   
O165     O      0.559240000000     0.443200000000     0.482460000000    -0.289625   
O166     O      0.553880000000     0.594230000000     0.462170000000    -0.310685   
O167     O      0.586170000000     0.484110000000     0.010200000000    -0.300258   
O168     O      0.541560000000     0.538400000000     0.047030000000    -0.300376   
O169     O      0.478720000000     0.535990000000     0.046860000000    -0.300576   
O170     O      0.509990000000     0.506530000000     0.235680000000    -0.367979   
O171     O      0.429440000000     0.456620000000     0.228610000000    -0.298157   
O172     O      0.554740000000     0.433230000000     0.261700000000    -0.308693   
O173     O      0.542170000000     0.492020000000     0.177010000000    -0.299804   
O174     O      0.465200000000     0.432780000000     0.260380000000    -0.308876   
O175     O      0.479420000000     0.491590000000     0.176820000000    -0.301286   
O176     O      0.591120000000     0.456010000000     0.229950000000    -0.296918   
O177     O      0.555600000000     0.588970000000     0.238530000000    -0.288817   
O178     O      0.508710000000     0.488680000000     0.295890000000    -0.31266    
O179     O      0.585720000000     0.546710000000     0.213570000000    -0.298269   
O180     O      0.507440000000     0.551800000000     0.293740000000    -0.289745   
O181     O      0.464160000000     0.589170000000     0.237650000000    -0.289727   
O182     O      0.434870000000     0.547630000000     0.211710000000    -0.297102   
O183     O      0.013650000000     0.519880000000     0.105870000000    -0.378191   
O184     O      0.052900000000     0.598230000000     0.126420000000    -0.310751   
O185     O      0.091330000000     0.477850000000     0.090850000000    -0.300693   
O186     O      0.012430000000     0.474920000000     0.163000000000    -0.292011   
O187     O      0.093730000000     0.569380000000     0.100210000000    -0.298196   
O188     O      0.030580000000     0.535540000000     0.165270000000    -0.3101     
O189     O      0.051290000000     0.434120000000     0.105690000000    -0.288375   
O190     O      0.943430000000     0.481730000000     0.076670000000    -0.297253   
O191     O      0.047430000000     0.524240000000     0.048220000000    -0.29845    
O192     O      0.959230000000     0.444850000000     0.110820000000    -0.293044   
O193     O      0.988460000000     0.546150000000     0.047200000000    -0.296266   
O194     O      0.933810000000     0.570230000000     0.101770000000    -0.292131   
O195     O      0.967010000000     0.585090000000     0.137460000000    -0.305111   
O196     O      0.012660000000     0.522510000000     0.355170000000    -0.373818   
O197     O      0.058430000000     0.442010000000     0.358530000000    -0.293438   
O198     O      0.046780000000     0.540120000000     0.296040000000    -0.298024   
O199     O      0.937310000000     0.482260000000     0.335370000000    -0.302      
O200     O      0.088770000000     0.484170000000     0.333540000000    -0.299103   
O201     O      0.965930000000     0.442030000000     0.362750000000    -0.290243   
O202     O      0.986170000000     0.524040000000     0.294650000000    -0.300989   
O203     O      0.961960000000     0.589420000000     0.378310000000    -0.315802   
O204     O      0.091320000000     0.574300000000     0.350910000000    -0.298391   
O205     O      0.933950000000     0.574170000000     0.340690000000    -0.296364   
O206     O      0.052790000000     0.597180000000     0.381530000000    -0.305998   
O207     O      0.005310000000     0.540990000000     0.415570000000    -0.313943   
O208     O      0.018480000000     0.479290000000     0.414630000000    -0.29156    
O209     O      0.009320000000     0.013570000000     0.610730000000    -0.370886   
O210     O      0.087460000000     0.067260000000     0.613810000000    -0.291702   
O211     O      0.985860000000     0.030330000000     0.551530000000    -0.304976   
O212     O      0.054520000000     0.931540000000     0.608150000000    -0.285704   
O213     O      0.054230000000     0.077440000000     0.577270000000    -0.304907   
O214     O      0.089780000000     0.976520000000     0.626850000000    -0.295815   
O215     O      0.016150000000     0.975080000000     0.551520000000    -0.286757   
O216     O      0.937890000000     0.970900000000     0.635450000000    -0.29215    
O217     O      0.970620000000     0.094270000000     0.592590000000    -0.305974   
O218     O      0.959680000000     0.934610000000     0.602510000000    -0.283957   
O219     O      0.927870000000     0.063370000000     0.615900000000    -0.290665   
O220     O      0.980270000000     0.033210000000     0.669540000000    -0.294517   
O221     O      0.042510000000     0.023460000000     0.669390000000    -0.291146   
O222     O      0.013040000000     0.012680000000     0.861010000000    -0.380493   
O223     O      0.044730000000     0.027590000000     0.918970000000    -0.291627   
O224     O      0.929360000000     0.056930000000     0.861910000000    -0.297069   
O225     O      0.054190000000     0.073960000000     0.826030000000    -0.311401   
O226     O      0.982220000000     0.036090000000     0.918480000000    -0.294782   
O227     O      0.091890000000     0.064480000000     0.860500000000    -0.293544   
O228     O      0.974330000000     0.093450000000     0.846530000000    -0.310194   
O229     O      0.017870000000     0.974270000000     0.802450000000    -0.289003   
O230     O      0.942850000000     0.972420000000     0.885080000000    -0.304297   
O231     O      0.984470000000     0.027750000000     0.802930000000    -0.304045   
O232     O      0.967760000000     0.932410000000     0.855770000000    -0.292161   
O233     O      0.058820000000     0.932450000000     0.858500000000    -0.292905   
O234     O      0.091010000000     0.977680000000     0.879390000000    -0.303052   
O235     O      0.255460000000     0.266040000000     0.538980000000    -0.375432   
O236     O      0.178930000000     0.213250000000     0.536730000000    -0.290803   
O237     O      0.313620000000     0.192500000000     0.547880000000    -0.300996   
O238     O      0.269510000000     0.276150000000     0.978670000000    -0.314287   
O239     O      0.222860000000     0.186840000000     0.562210000000    -0.297877   
O240     O      0.208320000000     0.264020000000     0.481740000000    -0.289043   
O241     O      0.315480000000     0.215470000000     0.507090000000    -0.309872   
O242     O      0.310420000000     0.342990000000     0.546120000000    -0.297678   
O243     O      0.271390000000     0.237460000000     0.598150000000    -0.304436   
O244     O      0.333290000000     0.304810000000     0.515220000000    -0.304876   
O245     O      0.264580000000     0.300310000000     0.597580000000    -0.299518   
O246     O      0.218010000000     0.345550000000     0.555360000000    -0.298012   
O247     O      0.172760000000     0.307410000000     0.540040000000    -0.287808   
O248     O      0.249330000000     0.261380000000     0.787330000000    -0.378309   
O249     O      0.329280000000     0.212800000000     0.798580000000    -0.28815    
O250     O      0.217270000000     0.174860000000     0.783590000000    -0.296548   
O251     O      0.218170000000     0.245610000000     0.845520000000    -0.302015   
O252     O      0.302460000000     0.197920000000     0.760280000000    -0.297858   
O253     O      0.278730000000     0.262840000000     0.846890000000    -0.293828   
O254     O      0.171450000000     0.214700000000     0.794290000000    -0.30514    
O255     O      0.201390000000     0.343200000000     0.783880000000    -0.298894   
O256     O      0.234230000000     0.231460000000     0.728750000000    -0.29953    
O257     O      0.174120000000     0.302830000000     0.811350000000    -0.305314   
O258     O      0.232190000000     0.294880000000     0.729870000000    -0.301859   
O259     O      0.289210000000     0.336000000000     0.767270000000    -0.303146   
O260     O      0.327180000000     0.307400000000     0.796150000000    -0.292161   
O261     O      0.264360000000     0.764980000000     0.670850000000    -0.375249   
O262     O      0.183320000000     0.810010000000     0.670440000000    -0.29076    
O263     O      0.318600000000     0.840020000000     0.668100000000    -0.299302   
O264     O      0.274780000000     0.739880000000     0.729900000000    -0.306068   
O265     O      0.227630000000     0.845980000000     0.651890000000    -0.29297    
O266     O      0.220610000000     0.771040000000     0.728500000000    -0.289178   
O267     O      0.319460000000     0.814790000000     0.708490000000    -0.300826   
O268     O      0.318850000000     0.687770000000     0.663640000000    -0.293774   
O269     O      0.281370000000     0.799600000000     0.613070000000    -0.297121   
O270     O      0.343050000000     0.726950000000     0.693500000000    -0.300338   
O271     O      0.275230000000     0.736530000000     0.611120000000    -0.297093   
O272     O      0.228590000000     0.688140000000     0.649650000000    -0.302098   
O273     O      0.185980000000     0.718140000000     0.674370000000    -0.293013   
O274     O      0.265290000000     0.771250000000     0.920440000000    -0.377454   
O275     O      0.225900000000     0.848760000000     0.904290000000    -0.301185   
O276     O      0.187550000000     0.720590000000     0.924620000000    -0.29554    
O277     O      0.286470000000     0.738940000000     0.862140000000    -0.293672   
O278     O      0.183860000000     0.812190000000     0.925110000000    -0.292394   
O279     O      0.268000000000     0.799690000000     0.860990000000    -0.295256   
O280     O      0.228360000000     0.694440000000     0.896820000000    -0.300403   
O281     O      0.329270000000     0.729350000000     0.953050000000    -0.311261   
O282     O      0.224380000000     0.764180000000     0.979150000000    -0.292017   
O283     O      0.313840000000     0.690490000000     0.920060000000    -0.295976   
O284     O      0.279460000000     0.794050000000     0.480330000000    -0.307584   
O285     O      0.341280000000     0.813990000000     0.940350000000    -0.313428   
O286     O      0.317900000000     0.850760000000     0.909050000000    -0.295299   
O287     O      0.516260000000     0.023430000000     0.980050000000    -0.377612   
O288     O      0.437610000000     0.075570000000     0.970750000000    -0.303626   
O289     O      0.516440000000     0.041540000000     0.538850000000    -0.324219   
O290     O      0.467440000000     0.944460000000     0.481610000000    -0.292646   
O291     O      0.468120000000     0.092300000000     0.507040000000    -0.312652   
O292     O      0.442130000000     0.986670000000     0.954060000000    -0.300917   
O293     O      0.512970000000     0.978750000000     0.538650000000    -0.289902   
O294     O      0.595600000000     0.984160000000     0.963770000000    -0.297546   
O295     O      0.559850000000     0.095350000000     0.505760000000    -0.314791   
O296     O      0.558930000000     0.940240000000     0.482380000000    -0.289315   
O297     O      0.594290000000     0.076360000000     0.971710000000    -0.302563   
O298     O      0.550570000000     0.031970000000     0.922280000000    -0.305703   
O299     O      0.488850000000     0.042640000000     0.921260000000    -0.308567   
O300     O      0.512580000000     0.018560000000     0.732840000000    -0.372957   
O301     O      0.468310000000     0.943560000000     0.711220000000    -0.30922    
O302     O      0.483790000000     0.003370000000     0.791820000000    -0.308973   
O303     O      0.595650000000     0.972740000000     0.738980000000    -0.297466   
O304     O      0.432620000000     0.968560000000     0.742790000000    -0.296531   
O305     O      0.560970000000     0.949720000000     0.706190000000    -0.30828    
O306     O      0.546080000000     0.998540000000     0.791010000000    -0.306618   
O307     O      0.559940000000     0.099740000000     0.726060000000    -0.285124   
O308     O      0.440960000000     0.061850000000     0.757530000000    -0.295591   
O309     O      0.582410000000     0.062670000000     0.758270000000    -0.296869   
O310     O      0.464310000000     0.099040000000     0.725690000000    -0.284962   
O311     O      0.512490000000     0.057480000000     0.672550000000    -0.291471   
O312     O      0.508040000000     0.994680000000     0.673690000000    -0.318544   
O313     O      0.754870000000     0.762730000000     0.668330000000    -0.372236   
O314     O      0.696330000000     0.816360000000     0.699290000000    -0.305421   
O315     O      0.799640000000     0.833290000000     0.641650000000    -0.29381    
O316     O      0.793050000000     0.766360000000     0.728090000000    -0.29121    
O317     O      0.710140000000     0.845250000000     0.661380000000    -0.296769   
O318     O      0.733030000000     0.748740000000     0.728390000000    -0.309199   
O319     O      0.835000000000     0.811780000000     0.674870000000    -0.286247   
O320     O      0.793190000000     0.686380000000     0.648440000000    -0.298896   
O321     O      0.736860000000     0.792930000000     0.609230000000    -0.302337   
O322     O      0.833800000000     0.715590000000     0.675280000000    -0.287034   
O323     O      0.739960000000     0.729730000000     0.609330000000    -0.298699   
O324     O      0.703020000000     0.683860000000     0.664390000000    -0.295337   
O325     O      0.672580000000     0.726980000000     0.688140000000    -0.300393   
O326     O      0.760960000000     0.768410000000     0.919700000000    -0.382232   
O327     O      0.817490000000     0.841310000000     0.926900000000    -0.300734   
O328     O      0.812120000000     0.716360000000     0.881410000000    -0.30655    
O329     O      0.781240000000     0.736310000000     0.977750000000    -0.300144   
O330     O      0.842010000000     0.799300000000     0.899100000000    -0.307274   
O331     O      0.771520000000     0.798880000000     0.978000000000    -0.300769   
O332     O      0.816110000000     0.693410000000     0.922190000000    -0.300808   
O333     O      0.684380000000     0.719310000000     0.917410000000    -0.294829   
O334     O      0.774610000000     0.793230000000     0.861240000000    -0.309829   
O335     O      0.728120000000     0.690270000000     0.941630000000    -0.301219   
O336     O      0.718910000000     0.765080000000     0.862260000000    -0.290993   
O337     O      0.680570000000     0.813070000000     0.918350000000    -0.289459   
O338     O      0.725570000000     0.848660000000     0.936730000000    -0.297065   
O339     O      0.765400000000     0.272140000000     0.545750000000    -0.378384   
O340     O      0.797920000000     0.191960000000     0.567150000000    -0.297303   
O341     O      0.807730000000     0.261100000000     0.487930000000    -0.29115    
O342     O      0.710170000000     0.222460000000     0.509790000000    -0.309291   
O343     O      0.843510000000     0.223440000000     0.546260000000    -0.289054   
O344     O      0.708230000000     0.199180000000     0.550620000000    -0.302509   
O345     O      0.753680000000     0.292060000000     0.985410000000    -0.308992   
O346     O      0.712840000000     0.350210000000     0.551600000000    -0.294834   
O347     O      0.844070000000     0.318980000000     0.537860000000    -0.288705   
O348     O      0.687550000000     0.309680000000     0.523050000000    -0.30462    
O349     O      0.804740000000     0.345480000000     0.567160000000    -0.299803   
O350     O      0.750930000000     0.303120000000     0.605090000000    -0.300304   
O351     O      0.748040000000     0.240010000000     0.604110000000    -0.302269   
O352     O      0.769720000000     0.262180000000     0.794070000000    -0.376318   
O353     O      0.849280000000     0.221290000000     0.802970000000    -0.307943   
O354     O      0.721400000000     0.195290000000     0.767250000000    -0.297241   
O355     O      0.736450000000     0.262640000000     0.853370000000    -0.292989   
O356     O      0.808760000000     0.177230000000     0.790560000000    -0.294287   
O357     O      0.795820000000     0.241810000000     0.852870000000    -0.303494   
O358     O      0.689350000000     0.214380000000     0.802670000000    -0.28828    
O359     O      0.731080000000     0.337730000000     0.773660000000    -0.301498   
O360     O      0.786650000000     0.232330000000     0.735200000000    -0.297431   
O361     O      0.691490000000     0.308720000000     0.801230000000    -0.290974   
O362     O      0.787390000000     0.295760000000     0.736670000000    -0.300337   
O363     O      0.819230000000     0.343480000000     0.791400000000    -0.297958   
O364     O      0.839790000000     0.305730000000     0.823240000000    -0.306181   
O365     O      0.510800000000     0.522530000000     0.488630000000    -0.374627   
O366     O      0.438730000000     0.477460000000     0.510830000000    -0.303675   
O367     O      0.509870000000     0.485840000000     0.929860000000    -0.292012   
O368     O      0.468290000000     0.603610000000     0.976030000000    -0.308213   
O369     O      0.466230000000     0.439200000000     0.981850000000    -0.290558   
O370     O      0.426570000000     0.563500000000     0.492570000000    -0.300976   
O371     O      0.497660000000     0.548180000000     0.929570000000    -0.305679   
O372     O      0.591600000000     0.573460000000     0.493730000000    -0.296971   
O373     O      0.559240000000     0.443200000000     0.982460000000    -0.289605   
O374     O      0.553890000000     0.594230000000     0.962170000000    -0.310788   
O375     O      0.586170000000     0.484120000000     0.510200000000    -0.300418   
O376     O      0.541560000000     0.538410000000     0.547030000000    -0.300385   
O377     O      0.478720000000     0.535990000000     0.546860000000    -0.300594   
O378     O      0.509990000000     0.506530000000     0.735680000000    -0.367979   
O379     O      0.429440000000     0.456620000000     0.728610000000    -0.29816    
O380     O      0.554730000000     0.433230000000     0.761700000000    -0.308614   
O381     O      0.542170000000     0.492020000000     0.677010000000    -0.299807   
O382     O      0.465200000000     0.432780000000     0.760380000000    -0.308876   
O383     O      0.479420000000     0.491600000000     0.676820000000    -0.301295   
O384     O      0.591120000000     0.456010000000     0.729950000000    -0.296879   
O385     O      0.555600000000     0.588970000000     0.738530000000    -0.288812   
O386     O      0.508710000000     0.488680000000     0.795890000000    -0.312666   
O387     O      0.585720000000     0.546710000000     0.713570000000    -0.298172   
O388     O      0.507440000000     0.551800000000     0.793740000000    -0.289743   
O389     O      0.464160000000     0.589170000000     0.737650000000    -0.289725   
O390     O      0.434870000000     0.547630000000     0.711710000000    -0.297097   
O391     O      0.013650000000     0.519890000000     0.605870000000    -0.378178   
O392     O      0.052900000000     0.598230000000     0.626420000000    -0.310757   
O393     O      0.091330000000     0.477850000000     0.590860000000    -0.300727   
O394     O      0.012430000000     0.474920000000     0.663000000000    -0.292056   
O395     O      0.093730000000     0.569380000000     0.600210000000    -0.298205   
O396     O      0.030580000000     0.535540000000     0.665270000000    -0.310111   
O397     O      0.051290000000     0.434120000000     0.605690000000    -0.288364   
O398     O      0.943430000000     0.481730000000     0.576670000000    -0.297264   
O399     O      0.047430000000     0.524240000000     0.548220000000    -0.298498   
O400     O      0.959230000000     0.444850000000     0.610820000000    -0.293029   
O401     O      0.988460000000     0.546150000000     0.547200000000    -0.296307   
O402     O      0.933810000000     0.570230000000     0.601770000000    -0.292247   
O403     O      0.967010000000     0.585090000000     0.637460000000    -0.305056   
O404     O      0.012660000000     0.522510000000     0.855170000000    -0.373787   
O405     O      0.058430000000     0.442010000000     0.858530000000    -0.293431   
O406     O      0.046780000000     0.540120000000     0.796050000000    -0.2981     
O407     O      0.937310000000     0.482260000000     0.835370000000    -0.302036   
O408     O      0.088770000000     0.484170000000     0.833540000000    -0.299096   
O409     O      0.965930000000     0.442030000000     0.862740000000    -0.290345   
O410     O      0.986170000000     0.524040000000     0.794640000000    -0.30102    
O411     O      0.961960000000     0.589420000000     0.878310000000    -0.315804   
O412     O      0.091320000000     0.574300000000     0.850910000000    -0.298375   
O413     O      0.933950000000     0.574170000000     0.840690000000    -0.296361   
O414     O      0.052790000000     0.597180000000     0.881530000000    -0.306004   
O415     O      0.005300000000     0.540980000000     0.915570000000    -0.313955   
O416     O      0.018480000000     0.479290000000     0.914630000000    -0.291674   
Zn1      Zn     0.056240000000     0.022330000000     0.129780000000     0.449679   
Zn2      Zn     0.005450000000     0.052230000000     0.084620000000     0.46958    
Zn3      Zn     0.009670000000     0.963820000000     0.092680000000     0.43412    
Zn4      Zn     0.964300000000     0.021790000000     0.131960000000     0.44891    
Zn5      Zn     0.059160000000     0.023600000000     0.379650000000     0.458465   
Zn6      Zn     0.967780000000     0.021790000000     0.380980000000     0.459942   
Zn7      Zn     0.006410000000     0.050450000000     0.335350000000     0.471171   
Zn8      Zn     0.014160000000     0.963260000000     0.343490000000     0.446494   
Zn9      Zn     0.204260000000     0.262850000000     0.023690000000     0.439661   
Zn10     Zn     0.267410000000     0.221980000000     0.060630000000     0.460203   
Zn11     Zn     0.292540000000     0.265950000000     0.012020000000     0.478587   
Zn12     Zn     0.263760000000     0.312800000000     0.058470000000     0.455435   
Zn13     Zn     0.295720000000     0.260530000000     0.307770000000     0.443896   
Zn14     Zn     0.249600000000     0.216720000000     0.265660000000     0.456988   
Zn15     Zn     0.204560000000     0.255700000000     0.308080000000     0.466716   
Zn16     Zn     0.241220000000     0.307820000000     0.267830000000     0.466463   
Zn17     Zn     0.214110000000     0.766120000000     0.186890000000     0.443396   
Zn18     Zn     0.274180000000     0.811680000000     0.151870000000     0.454552   
Zn19     Zn     0.299710000000     0.762570000000     0.199060000000     0.46381    
Zn20     Zn     0.274130000000     0.720280000000     0.149600000000     0.459381   
Zn21     Zn     0.271380000000     0.816900000000     0.399310000000     0.454971   
Zn22     Zn     0.216160000000     0.767060000000     0.438010000000     0.446396   
Zn23     Zn     0.275640000000     0.724990000000     0.400570000000     0.454025   
Zn24     Zn     0.302090000000     0.776860000000     0.447010000000     0.480962   
Zn25     Zn     0.472620000000     0.033790000000     0.457890000000     0.463976   
Zn26     Zn     0.515190000000     0.063100000000     0.005220000000     0.491079   
Zn27     Zn     0.513900000000     0.972390000000     0.996620000000     0.439684   
Zn28     Zn     0.563070000000     0.030460000000     0.460570000000     0.460637   
Zn29     Zn     0.512530000000     0.976900000000     0.208770000000     0.483354   
Zn30     Zn     0.468080000000     0.011830000000     0.254920000000     0.458733   
Zn31     Zn     0.558130000000     0.011710000000     0.253990000000     0.459103   
Zn32     Zn     0.512420000000     0.068160000000     0.213730000000     0.433068   
Zn33     Zn     0.714990000000     0.763710000000     0.193760000000     0.469724   
Zn34     Zn     0.748950000000     0.807560000000     0.146210000000     0.456642   
Zn35     Zn     0.803730000000     0.764160000000     0.187130000000     0.436622   
Zn36     Zn     0.745850000000     0.716600000000     0.148260000000     0.455385   
Zn37     Zn     0.770150000000     0.813800000000     0.439530000000     0.463357   
Zn38     Zn     0.796450000000     0.768670000000     0.391950000000     0.472544   
Zn39     Zn     0.773520000000     0.723430000000     0.439480000000     0.462808   
Zn40     Zn     0.711160000000     0.767000000000     0.403670000000     0.446508   
Zn41     Zn     0.753370000000     0.227040000000     0.065830000000     0.461898   
Zn42     Zn     0.815120000000     0.269050000000     0.028900000000     0.441777   
Zn43     Zn     0.730150000000     0.273850000000     0.017770000000     0.471642   
Zn44     Zn     0.756430000000     0.317110000000     0.066600000000     0.459971   
Zn45     Zn     0.812040000000     0.257620000000     0.317030000000     0.468059   
Zn46     Zn     0.773200000000     0.216950000000     0.272500000000     0.454524   
Zn47     Zn     0.722240000000     0.261570000000     0.313450000000     0.443109   
Zn48     Zn     0.778880000000     0.308750000000     0.274800000000     0.463063   
Zn49     Zn     0.464870000000     0.526760000000     0.008900000000     0.461332   
Zn50     Zn     0.511650000000     0.473220000000     0.470180000000     0.441752   
Zn51     Zn     0.507070000000     0.565660000000     0.465800000000     0.472458   
Zn52     Zn     0.556410000000     0.531870000000     0.009020000000     0.458977   
Zn53     Zn     0.464330000000     0.498930000000     0.214550000000     0.454613   
Zn54     Zn     0.509790000000     0.466120000000     0.261260000000     0.476414   
Zn55     Zn     0.556240000000     0.498310000000     0.215260000000     0.453516   
Zn56     Zn     0.509420000000     0.558070000000     0.252190000000     0.437879   
Zn57     Zn     0.015400000000     0.558440000000     0.131960000000     0.479344   
Zn58     Zn     0.060710000000     0.524720000000     0.087080000000     0.458493   
Zn59     Zn     0.009220000000     0.469130000000     0.121860000000     0.443484   
Zn60     Zn     0.970560000000     0.531270000000     0.083750000000     0.451265   
Zn61     Zn     0.013910000000     0.472430000000     0.373360000000     0.442437   
Zn62     Zn     0.058540000000     0.532150000000     0.334900000000     0.45406    
Zn63     Zn     0.968820000000     0.528280000000     0.332180000000     0.458424   
Zn64     Zn     0.008930000000     0.561930000000     0.380560000000     0.482149   
Zn65     Zn     0.056240000000     0.022330000000     0.629780000000     0.44967    
Zn66     Zn     0.005450000000     0.052230000000     0.584620000000     0.469589   
Zn67     Zn     0.009670000000     0.963820000000     0.592680000000     0.43411    
Zn68     Zn     0.964300000000     0.021790000000     0.631960000000     0.448905   
Zn69     Zn     0.059160000000     0.023600000000     0.879650000000     0.458448   
Zn70     Zn     0.967780000000     0.021800000000     0.880980000000     0.459929   
Zn71     Zn     0.006410000000     0.050460000000     0.835350000000     0.471165   
Zn72     Zn     0.014160000000     0.963260000000     0.843490000000     0.446507   
Zn73     Zn     0.204260000000     0.262850000000     0.523690000000     0.439563   
Zn74     Zn     0.267410000000     0.221980000000     0.560620000000     0.460213   
Zn75     Zn     0.292540000000     0.265950000000     0.512020000000     0.478499   
Zn76     Zn     0.263760000000     0.312800000000     0.558470000000     0.455447   
Zn77     Zn     0.295720000000     0.260530000000     0.807770000000     0.443875   
Zn78     Zn     0.249600000000     0.216720000000     0.765660000000     0.456964   
Zn79     Zn     0.204560000000     0.255700000000     0.808080000000     0.466736   
Zn80     Zn     0.241220000000     0.307820000000     0.767830000000     0.466459   
Zn81     Zn     0.214110000000     0.766120000000     0.686900000000     0.443398   
Zn82     Zn     0.274180000000     0.811680000000     0.651860000000     0.454556   
Zn83     Zn     0.299710000000     0.762570000000     0.699060000000     0.46381    
Zn84     Zn     0.274130000000     0.720280000000     0.649600000000     0.45937    
Zn85     Zn     0.271380000000     0.816900000000     0.899310000000     0.45498    
Zn86     Zn     0.216160000000     0.767060000000     0.938010000000     0.446399   
Zn87     Zn     0.275640000000     0.724990000000     0.900570000000     0.454029   
Zn88     Zn     0.302090000000     0.776860000000     0.947010000000     0.480924   
Zn89     Zn     0.472620000000     0.033790000000     0.957880000000     0.463918   
Zn90     Zn     0.515190000000     0.063100000000     0.505220000000     0.490913   
Zn91     Zn     0.513900000000     0.972390000000     0.496620000000     0.439796   
Zn92     Zn     0.563070000000     0.030460000000     0.960580000000     0.460672   
Zn93     Zn     0.512530000000     0.976900000000     0.708770000000     0.483341   
Zn94     Zn     0.468070000000     0.011830000000     0.754920000000     0.458736   
Zn95     Zn     0.558130000000     0.011720000000     0.753990000000     0.459111   
Zn96     Zn     0.512420000000     0.068160000000     0.713730000000     0.433062   
Zn97     Zn     0.714990000000     0.763710000000     0.693760000000     0.469697   
Zn98     Zn     0.748950000000     0.807570000000     0.646210000000     0.456641   
Zn99     Zn     0.803730000000     0.764160000000     0.687130000000     0.436583   
Zn100    Zn     0.745850000000     0.716600000000     0.648260000000     0.455407   
Zn101    Zn     0.770160000000     0.813800000000     0.939530000000     0.46333    
Zn102    Zn     0.796450000000     0.768670000000     0.891960000000     0.472514   
Zn103    Zn     0.773530000000     0.723430000000     0.939480000000     0.462775   
Zn104    Zn     0.711160000000     0.767000000000     0.903670000000     0.446512   
Zn105    Zn     0.753370000000     0.227040000000     0.565830000000     0.461918   
Zn106    Zn     0.815130000000     0.269050000000     0.528900000000     0.441666   
Zn107    Zn     0.730150000000     0.273850000000     0.517770000000     0.471537   
Zn108    Zn     0.756430000000     0.317110000000     0.566600000000     0.459954   
Zn109    Zn     0.812040000000     0.257620000000     0.817030000000     0.468106   
Zn110    Zn     0.773200000000     0.216950000000     0.772500000000     0.454534   
Zn111    Zn     0.722240000000     0.261570000000     0.813450000000     0.4431     
Zn112    Zn     0.778880000000     0.308750000000     0.774800000000     0.463078   
Zn113    Zn     0.464870000000     0.526760000000     0.508900000000     0.461128   
Zn114    Zn     0.511650000000     0.473220000000     0.970180000000     0.441686   
Zn115    Zn     0.507070000000     0.565660000000     0.965800000000     0.4724     
Zn116    Zn     0.556410000000     0.531870000000     0.509020000000     0.45879    
Zn117    Zn     0.464330000000     0.498930000000     0.714550000000     0.454618   
Zn118    Zn     0.509790000000     0.466120000000     0.761260000000     0.476431   
Zn119    Zn     0.556240000000     0.498310000000     0.715260000000     0.453503   
Zn120    Zn     0.509420000000     0.558070000000     0.752190000000     0.437883   
Zn121    Zn     0.015400000000     0.558440000000     0.631960000000     0.47937    
Zn122    Zn     0.060710000000     0.524720000000     0.587080000000     0.458493   
Zn123    Zn     0.009220000000     0.469130000000     0.621870000000     0.443445   
Zn124    Zn     0.970560000000     0.531270000000     0.583750000000     0.451279   
Zn125    Zn     0.013910000000     0.472430000000     0.873360000000     0.442447   
Zn126    Zn     0.058540000000     0.532150000000     0.834890000000     0.454107   
Zn127    Zn     0.968820000000     0.528280000000     0.832180000000     0.45839    
Zn128    Zn     0.008930000000     0.561930000000     0.880560000000     0.482135   


