data_structure

_audit_creation_method RASPA-1.0
_audit_creation_date 2023-5-19
_audit_author_name 'Poobodin Mano'

_cell_length_a    25.8753
_cell_length_b    25.8994
_cell_length_c    25.8638
_cell_angle_alpha 90
_cell_angle_beta  90
_cell_angle_gamma 90
_cell_volume      17332.7

_symmetry_cell_setting          triclinic
_symmetry_space_group_name_Hall 'P 1'
_symmetry_space_group_name_H-M  'P 1'
_symmetry_Int_Tables_number     1

_symmetry_equiv_pos_as_xyz 'x,y,z'

loop_
_atom_site_label
_atom_site_type_symbol
_atom_site_fract_x
_atom_site_fract_y
_atom_site_fract_z
_atom_site_charge
C1       C      0.995120000000     0.996800000000     0.855480000000     0.37584    
C2       C      0.996610000000     0.140640000000     0.998030000000     0.373706   
C3       C      0.851400000000     0.005250000000     0.999860000000     0.382947   
C4       C      0.996530000000     0.991330000000     0.140370000000     0.376867   
C5       C      0.138780000000     0.001730000000     0.001700000000     0.369885   
C6       C      0.991920000000     0.853710000000     0.995220000000     0.383787   
C7       C      0.995680000000     0.991360000000     0.355120000000     0.36844    
C8       C      0.140880000000     0.994750000000     0.497320000000     0.372975   
C9       C      0.999320000000     0.139510000000     0.494860000000     0.368218   
C10      C      0.997090000000     0.995480000000     0.640600000000     0.36775    
C11      C      0.997210000000     0.850790000000     0.499270000000     0.369108   
C12      C      0.853980000000     0.997760000000     0.500090000000     0.38373    
C13      C      0.851770000000     0.489160000000     0.997830000000     0.36955    
C14      C      0.996860000000     0.503000000000     0.137950000000     0.368258   
C15      C      0.998330000000     0.353280000000     0.996020000000     0.384688   
C16      C      0.138660000000     0.493130000000     0.995320000000     0.370543   
C17      C      0.992620000000     0.640890000000     0.993430000000     0.371525   
C18      C      0.994510000000     0.499140000000     0.853730000000     0.370115   
C19      C      0.999230000000     0.352870000000     0.494060000000     0.378352   
C20      C      0.999460000000     0.503010000000     0.352540000000     0.376208   
C21      C      0.854050000000     0.493960000000     0.493500000000     0.374327   
C22      C      0.996950000000     0.637640000000     0.501430000000     0.380773   
C23      C      0.142160000000     0.494360000000     0.495490000000     0.374888   
C24      C      0.997650000000     0.493350000000     0.639060000000     0.379829   
C25      C      0.351710000000     0.004400000000     0.008900000000     0.383842   
C26      C      0.497480000000     0.993340000000     0.142680000000     0.3683     
C27      C      0.494670000000     0.855400000000     0.991910000000     0.387022   
C28      C      0.638060000000     0.003620000000     0.003440000000     0.372269   
C29      C      0.496390000000     0.141870000000     0.995340000000     0.370787   
C30      C      0.493720000000     0.993340000000     0.858290000000     0.380504   
C31      C      0.355020000000     0.995190000000     0.498840000000     0.379429   
C32      C      0.498660000000     0.993600000000     0.356160000000     0.382837   
C33      C      0.498360000000     0.140280000000     0.502390000000     0.369619   
C34      C      0.639940000000     0.997850000000     0.497740000000     0.375268   
C35      C      0.500430000000     0.853660000000     0.503690000000     0.383192   
C36      C      0.496220000000     0.996590000000     0.644830000000     0.369564   
C37      C      0.497110000000     0.354870000000     0.995310000000     0.385791   
C38      C      0.351850000000     0.493360000000     0.994190000000     0.382219   
C39      C      0.494610000000     0.505670000000     0.138580000000     0.376897   
C40      C      0.495570000000     0.642610000000     0.994290000000     0.373403   
C41      C      0.497230000000     0.502550000000     0.855680000000     0.374719   
C42      C      0.638550000000     0.490280000000     0.997870000000     0.385035   
C43      C      0.355060000000     0.493420000000     0.497030000000     0.384083   
C44      C      0.501010000000     0.354690000000     0.499780000000     0.377931   
C45      C      0.495220000000     0.501300000000     0.353100000000     0.376496   
C46      C      0.641150000000     0.496820000000     0.492600000000     0.386353   
C47      C      0.501400000000     0.498520000000     0.641500000000     0.383164   
C48      C      0.498360000000     0.639500000000     0.500840000000     0.371536   
C49      C      0.463280000000     0.474300000000     0.775170000000     0.037733   
C50      C      0.535040000000     0.530220000000     0.776480000000     0.0121527  
C51      C      0.465360000000     0.472720000000     0.721460000000     0.0407073  
C52      C      0.538260000000     0.527940000000     0.722400000000     0.140049   
C53      C      0.523890000000     0.469370000000     0.271880000000     0.0385487  
C54      C      0.467090000000     0.540330000000     0.274450000000     0.0139706  
C55      C      0.524190000000     0.471540000000     0.218130000000     0.0409821  
C56      C      0.467860000000     0.543470000000     0.220200000000     0.140293   
C57      C      0.463400000000     0.720490000000     0.475310000000     0.0363125  
C58      C      0.535860000000     0.718130000000     0.530320000000     0.0113037  
C59      C      0.464710000000     0.774220000000     0.475960000000     0.0426578  
C60      C      0.538120000000     0.772250000000     0.530500000000     0.142186   
C61      C      0.467080000000     0.221390000000     0.532840000000     0.0352353  
C62      C      0.535210000000     0.218990000000     0.472610000000     0.0095582  
C63      C      0.468430000000     0.275280000000     0.532080000000     0.040608   
C64      C      0.537900000000     0.273060000000     0.472670000000     0.137978   
C65      C      0.450340000000     0.722390000000     0.996900000000     0.0389395  
C66      C      0.540750000000     0.721770000000     0.984940000000     0.0130635  
C67      C      0.450210000000     0.776140000000     0.992840000000     0.0454219  
C68      C      0.541460000000     0.775950000000     0.984200000000     0.142346   
C69      C      0.491880000000     0.221890000000     0.039470000000     0.0347665  
C70      C      0.504030000000     0.220890000000     0.949070000000     0.0109432  
C71      C      0.494640000000     0.275530000000     0.039360000000     0.0429346  
C72      C      0.504130000000     0.275140000000     0.948190000000     0.141627   
C73      C      0.450900000000     0.003370000000     0.724600000000     0.0354553  
C74      C      0.539970000000     0.984020000000     0.724520000000     0.0118475  
C75      C      0.450090000000     0.999130000000     0.778470000000     0.0438292  
C76      C      0.540250000000     0.982880000000     0.778800000000     0.142231   
C77      C      0.493000000000     0.037440000000     0.222830000000     0.0349547  
C78      C      0.504780000000     0.947130000000     0.221920000000     0.0118217  
C79      C      0.496090000000     0.037400000000     0.276620000000     0.0410227  
C80      C      0.504280000000     0.946240000000     0.276350000000     0.13958    
C81      C      0.773870000000     0.488000000000     0.537310000000     0.0399697  
C82      C      0.775310000000     0.500840000000     0.446970000000     0.0140919  
C83      C      0.720160000000     0.491750000000     0.536940000000     0.0464088  
C84      C      0.721040000000     0.500960000000     0.445690000000     0.14369    
C85      C      0.221780000000     0.497020000000     0.540840000000     0.0366224  
C86      C      0.221510000000     0.487940000000     0.450040000000     0.0125389  
C87      C      0.275570000000     0.493590000000     0.541000000000     0.0420185  
C88      C      0.275770000000     0.488150000000     0.449450000000     0.139302   
C89      C      0.771900000000     0.532950000000     0.004820000000     0.0368152  
C90      C      0.772430000000     0.442820000000     0.991550000000     0.0122826  
C91      C      0.718210000000     0.533120000000     0.002090000000     0.0440103  
C92      C      0.717970000000     0.442070000000     0.992570000000     0.141014   
C93      C      0.218740000000     0.448260000000     0.001770000000     0.0365709  
C94      C      0.217830000000     0.537940000000     0.985740000000     0.0107182  
C95      C      0.272710000000     0.448290000000     0.998270000000     0.0408377  
C96      C      0.272000000000     0.538990000000     0.985710000000     0.139564   
C97      C      0.024870000000     0.531130000000     0.772800000000     0.0362003  
C98      C      0.965370000000     0.462440000000     0.774650000000     0.0116466  
C99      C      0.025800000000     0.528760000000     0.718890000000     0.0410195  
C100     C      0.967290000000     0.458600000000     0.720630000000     0.141416   
C101     C      0.028360000000     0.470760000000     0.218040000000     0.0352429  
C102     C      0.970060000000     0.540510000000     0.217750000000     0.0104878  
C103     C      0.028880000000     0.471240000000     0.271870000000     0.0387794  
C104     C      0.971670000000     0.542470000000     0.272000000000     0.138085   
C105     C      0.041520000000     0.770640000000     0.493540000000     0.0360459  
C106     C      0.951700000000     0.771770000000     0.509100000000     0.0111756  
C107     C      0.041450000000     0.716850000000     0.497310000000     0.0429037  
C108     C      0.950630000000     0.717520000000     0.509450000000     0.142189   
C109     C      0.955250000000     0.219550000000     0.486830000000     0.0357239  
C110     C      0.045150000000     0.218790000000     0.501800000000     0.012534   
C111     C      0.955260000000     0.273420000000     0.489610000000     0.0424307  
C112     C      0.046190000000     0.273130000000     0.500750000000     0.139997   
C113     C      0.720520000000     0.026310000000     0.463610000000     0.036155   
C114     C      0.718910000000     0.970290000000     0.535340000000     0.0116091  
C115     C      0.774370000000     0.026570000000     0.465160000000     0.0404656  
C116     C      0.772860000000     0.971470000000     0.538190000000     0.141549   
C117     C      0.221420000000     0.966340000000     0.463030000000     0.0340869  
C118     C      0.219950000000     0.023180000000     0.534090000000     0.0092776  
C119     C      0.275300000000     0.966360000000     0.464110000000     0.0385548  
C120     C      0.273940000000     0.022390000000     0.536440000000     0.137711   
C121     C      0.036560000000     0.720960000000     0.987270000000     0.0361921  
C122     C      0.946190000000     0.719700000000     0.999510000000     0.0111306  
C123     C      0.036230000000     0.774660000000     0.990580000000     0.0435813  
C124     C      0.944980000000     0.773920000000     0.999330000000     0.139971   
C125     C      0.992250000000     0.220910000000     0.041900000000     0.0370959  
C126     C      0.003830000000     0.219100000000     0.951390000000     0.0125547  
C127     C      0.995610000000     0.274580000000     0.041220000000     0.0414869  
C128     C      0.004270000000     0.273210000000     0.949920000000     0.14217    
C129     C      0.718600000000     0.960510000000     0.009200000000     0.0396979  
C130     C      0.716800000000     0.050900000000     0.998090000000     0.0135174  
C131     C      0.772320000000     0.961090000000     0.005070000000     0.0449292  
C132     C      0.771230000000     0.052340000000     0.997870000000     0.140545   
C133     C      0.218370000000     0.048200000000     0.999960000000     0.0346544  
C134     C      0.218240000000     0.958360000000     0.015020000000     0.0117605  
C135     C      0.272210000000     0.048970000000     0.005730000000     0.0426533  
C136     C      0.272360000000     0.958160000000     0.017400000000     0.140209   
C137     C      0.966980000000     0.961970000000     0.721100000000     0.0364107  
C138     C      0.025630000000     0.031410000000     0.720360000000     0.0110821  
C139     C      0.966270000000     0.963080000000     0.775110000000     0.041493   
C140     C      0.024410000000     0.033570000000     0.774540000000     0.140273   
C141     C      0.962880000000     0.021090000000     0.274490000000     0.0343346  
C142     C      0.028670000000     0.958350000000     0.275720000000     0.01045    
C143     C      0.963650000000     0.020820000000     0.220630000000     0.0384484  
C144     C      0.030660000000     0.958700000000     0.221490000000     0.138878   
H1       H      0.436240000000     0.449810000000     0.701870000000     0.052172   
H2       H      0.433210000000     0.452110000000     0.794140000000     0.0561558  
H3       H      0.564040000000     0.552410000000     0.797080000000     0.0765381  
H4       H      0.547110000000     0.442720000000     0.198150000000     0.0545155  
H5       H      0.546940000000     0.439650000000     0.290330000000     0.0594467  
H6       H      0.444970000000     0.568970000000     0.295590000000     0.0777635  
H7       H      0.435060000000     0.794200000000     0.454090000000     0.0550404  
H8       H      0.433360000000     0.701940000000     0.452720000000     0.0549655  
H9       H      0.565350000000     0.697190000000     0.551530000000     0.0802651  
H10      H      0.440530000000     0.295410000000     0.556000000000     0.05399    
H11      H      0.438680000000     0.202780000000     0.557410000000     0.0563484  
H12      H      0.563130000000     0.198060000000     0.449370000000     0.0727549  
H13      H      0.413550000000     0.796190000000     0.996460000000     0.0586655  
H14      H      0.413670000000     0.702740000000     0.002000000000     0.0634311  
H15      H      0.576990000000     0.701180000000     0.980450000000     0.0741391  
H16      H      0.490530000000     0.295470000000     0.076050000000     0.0476516  
H17      H      0.487100000000     0.202550000000     0.076370000000     0.050105   
H18      H      0.509100000000     0.200180000000     0.912970000000     0.0740712  
H19      H      0.413720000000     0.005650000000     0.798320000000     0.0496653  
H20      H      0.414900000000     0.011530000000     0.704720000000     0.0587491  
H21      H      0.575880000000     0.976580000000     0.704160000000     0.0768376  
H22      H      0.492550000000     0.074060000000     0.296650000000     0.0469343  
H23      H      0.488440000000     0.074240000000     0.203320000000     0.049521   
H24      H      0.509540000000     0.911070000000     0.201110000000     0.0747872  
H25      H      0.699810000000     0.488080000000     0.573460000000     0.0572125  
H26      H      0.793200000000     0.482850000000     0.574170000000     0.0586997  
H27      H      0.796340000000     0.505810000000     0.411010000000     0.076403   
H28      H      0.295500000000     0.496030000000     0.577850000000     0.0462007  
H29      H      0.201940000000     0.500640000000     0.577620000000     0.0511746  
H30      H      0.200980000000     0.484400000000     0.413620000000     0.0723251  
H31      H      0.698400000000     0.569830000000     0.006260000000     0.0508478  
H32      H      0.791510000000     0.569650000000     0.009770000000     0.0538891  
H33      H      0.793150000000     0.406820000000     0.986020000000     0.0739543  
H34      H      0.293080000000     0.412040000000     0.003460000000     0.0464995  
H35      H      0.199120000000     0.411830000000     0.008270000000     0.050604   
H36      H      0.197150000000     0.573850000000     0.979460000000     0.0717199  
H37      H      0.050060000000     0.556510000000     0.698980000000     0.0516789  
H38      H      0.048600000000     0.560070000000     0.791640000000     0.0519177  
H39      H      0.941730000000     0.434700000000     0.795370000000     0.0802365  
H40      H      0.052570000000     0.442430000000     0.290960000000     0.0524341  
H41      H      0.051680000000     0.441860000000     0.198650000000     0.0518774  
H42      H      0.947050000000     0.569140000000     0.197540000000     0.0747334  
H43      H      0.077840000000     0.696620000000     0.492300000000     0.0473835  
H44      H      0.078100000000     0.790060000000     0.487130000000     0.0498437  
H45      H      0.915810000000     0.792580000000     0.515150000000     0.0773017  
H46      H      0.918780000000     0.293540000000     0.484840000000     0.0485158  
H47      H      0.918630000000     0.199960000000     0.481160000000     0.0507914  
H48      H      0.081070000000     0.198060000000     0.508000000000     0.0724524  
H49      H      0.794270000000     0.049020000000     0.435890000000     0.0507496  
H50      H      0.701550000000     0.048850000000     0.433800000000     0.0527795  
H51      H      0.698280000000     0.948480000000     0.564620000000     0.0810103  
H52      H      0.295160000000     0.943690000000     0.434990000000     0.0518246  
H53      H      0.202390000000     0.943350000000     0.433610000000     0.0522805  
H54      H      0.199370000000     0.045220000000     0.563240000000     0.0747745  
H55      H      0.072770000000     0.794930000000     0.986990000000     0.0497187  
H56      H      0.073430000000     0.701590000000     0.982490000000     0.0523276  
H57      H      0.910170000000     0.698790000000     0.004400000000     0.0726559  
H58      H      0.991980000000     0.295030000000     0.077660000000     0.0469318  
H59      H      0.987520000000     0.201800000000     0.078920000000     0.0503744  
H60      H      0.008430000000     0.198060000000     0.915400000000     0.0819711  
H61      H      0.792740000000     0.924570000000     0.007820000000     0.0594049  
H62      H      0.699460000000     0.923500000000     0.013620000000     0.0627872  
H63      H      0.695570000000     0.086780000000     0.993830000000     0.0735385  
H64      H      0.292260000000     0.085500000000     0.001370000000     0.0454213  
H65      H      0.198470000000     0.084370000000     0.992930000000     0.0513192  
H66      H      0.197930000000     0.922050000000     0.020100000000     0.0752691  
H67      H      0.942540000000     0.934630000000     0.794680000000     0.0554327  
H68      H      0.943370000000     0.933240000000     0.701800000000     0.0593173  
H69      H      0.048670000000     0.059950000000     0.700060000000     0.0760393  
H70      H      0.936530000000     0.046110000000     0.201130000000     0.0519702  
H71      H      0.935640000000     0.046600000000     0.293530000000     0.0509726  
H72      H      0.055630000000     0.933640000000     0.296210000000     0.0734293  
N1       N      0.498140000000     0.502930000000     0.802690000000    -0.158176   
N2       N      0.502340000000     0.499660000000     0.694700000000    -0.176069   
N3       N      0.581660000000     0.552530000000     0.698110000000    -0.0265442  
N4       N      0.495110000000     0.503480000000     0.300080000000    -0.157517   
N5       N      0.495630000000     0.507730000000     0.191850000000    -0.174152   
N6       N      0.442140000000     0.586410000000     0.196300000000    -0.0268195  
N7       N      0.498990000000     0.692440000000     0.502380000000    -0.157951   
N8       N      0.501620000000     0.800480000000     0.503620000000    -0.175037   
N9       N      0.581130000000     0.796190000000     0.556080000000    -0.0272533  
N10      N      0.500020000000     0.193280000000     0.502620000000    -0.158675   
N11      N      0.503050000000     0.301480000000     0.501500000000    -0.174332   
N12      N      0.579600000000     0.296770000000     0.444770000000    -0.0264437  
N13      N      0.495530000000     0.695400000000     0.992360000000    -0.15762    
N14      N      0.495670000000     0.802790000000     0.988520000000    -0.176428   
N15      N      0.589790000000     0.801860000000     0.974670000000    -0.0281757  
N16      N      0.497180000000     0.194680000000     0.994470000000    -0.159697   
N17      N      0.499130000000     0.302140000000     0.993900000000    -0.17731    
N18      N      0.514290000000     0.300820000000     0.899910000000    -0.027781   
N19      N      0.495690000000     0.995090000000     0.697780000000    -0.157415   
N20      N      0.494820000000     0.990770000000     0.805480000000    -0.176197   
N21      N      0.587410000000     0.969010000000     0.804900000000    -0.0279502  
N22      N      0.498240000000     0.992480000000     0.195610000000    -0.158434   
N23      N      0.500090000000     0.991990000000     0.303320000000    -0.177071   
N24      N      0.512850000000     0.897800000000     0.302270000000    -0.0278862  
N25      N      0.801260000000     0.493840000000     0.492540000000    -0.158103   
N26      N      0.693870000000     0.496890000000     0.491320000000    -0.176003   
N27      N      0.695530000000     0.510200000000     0.397100000000    -0.0271941  
N28      N      0.194970000000     0.493350000000     0.495460000000    -0.15947    
N29      N      0.302390000000     0.490980000000     0.495500000000    -0.177556   
N30      N      0.301960000000     0.480970000000     0.400850000000    -0.0275019  
N31      N      0.798900000000     0.488060000000     0.998340000000    -0.15886    
N32      N      0.691300000000     0.487920000000     0.997280000000    -0.177144   
N33      N      0.691750000000     0.393820000000     0.983880000000    -0.0287072  
N34      N      0.191550000000     0.492960000000     0.994570000000    -0.159476   
N35      N      0.299110000000     0.493650000000     0.992040000000    -0.176814   
N36      N      0.297640000000     0.587070000000     0.974510000000    -0.0272715  
N37      N      0.994550000000     0.498080000000     0.800650000000    -0.157948   
N38      N      0.996960000000     0.492910000000     0.692400000000    -0.174944   
N39      N      0.939970000000     0.416600000000     0.696890000000    -0.026812   
N40      N      0.998340000000     0.504810000000     0.190970000000    -0.159205   
N41      N      0.000070000000     0.506280000000     0.299300000000    -0.173927   
N42      N      0.944930000000     0.584080000000     0.297050000000    -0.0265355  
N43      N      0.996810000000     0.797930000000     0.500330000000    -0.158735   
N44      N      0.996070000000     0.690390000000     0.503520000000    -0.176335   
N45      N      0.902490000000     0.691930000000     0.520540000000    -0.0273196  
N46      N      0.999970000000     0.192400000000     0.494170000000    -0.15902    
N47      N      0.000600000000     0.300080000000     0.495110000000    -0.174662   
N48      N      0.094490000000     0.299010000000     0.510360000000    -0.0275929  
N49      N      0.692880000000     0.997900000000     0.498480000000    -0.15869    
N50      N      0.800840000000     0.998730000000     0.501780000000    -0.176444   
N51      N      0.796890000000     0.946660000000     0.581650000000    -0.0269662  
N52      N      0.193840000000     0.994940000000     0.497870000000    -0.160202   
N53      N      0.301850000000     0.994700000000     0.500210000000    -0.175933   
N54      N      0.298060000000     0.047750000000     0.579520000000    -0.0262072  
N55      N      0.991740000000     0.693670000000     0.993020000000    -0.159953   
N56      N      0.990630000000     0.801020000000     0.995300000000    -0.177433   
N57      N      0.896400000000     0.799460000000     0.008370000000    -0.0271014  
N58      N      0.997210000000     0.193380000000     0.997110000000    -0.159003   
N59      N      0.000030000000     0.300610000000     0.995390000000    -0.177656   
N60      N      0.013950000000     0.298360000000     0.901240000000    -0.0271866  
N61      N      0.690950000000     0.005190000000     0.004220000000    -0.157236   
N62      N      0.798580000000     0.006750000000     0.000580000000    -0.175143   
N63      N      0.796620000000     0.101170000000     0.989950000000    -0.0282136  
N64      N      0.191610000000     0.002930000000     0.005150000000    -0.157673   
N65      N      0.299030000000     0.003900000000     0.012250000000    -0.177441   
N66      N      0.298410000000     0.910350000000     0.028970000000    -0.0273061  
N67      N      0.996770000000     0.996030000000     0.693740000000    -0.157557   
N68      N      0.995340000000     0.998210000000     0.802160000000    -0.174213   
N69      N      0.050580000000     0.075890000000     0.799100000000    -0.0266817  
N70      N      0.995490000000     0.990040000000     0.302060000000    -0.159323   
N71      N      0.997390000000     0.989920000000     0.193690000000    -0.174809   
N72      N      0.069860000000     0.928080000000     0.197030000000    -0.026713   
O1       O      0.994720000000     0.997300000000     0.998040000000    -0.371526   
O2       O      0.961690000000     0.969310000000     0.879540000000    -0.286924   
O3       O      0.018340000000     0.115530000000     0.961720000000    -0.285574   
O4       O      0.877390000000     0.037370000000     0.026830000000    -0.275413   
O5       O      0.028240000000     0.023030000000     0.880800000000    -0.275504   
O6       O      0.873980000000     0.970420000000     0.973340000000    -0.284423   
O7       O      0.974730000000     0.117010000000     0.035280000000    -0.289704   
O8       O      0.025420000000     0.961360000000     0.113980000000    -0.272266   
O9       O      0.114650000000     0.035860000000     0.975500000000    -0.287615   
O10      O      0.966800000000     0.023310000000     0.117360000000    -0.294927   
O11      O      0.114070000000     0.965900000000     0.024680000000    -0.289192   
O12      O      0.027740000000     0.876910000000     0.019710000000    -0.289551   
O13      O      0.957580000000     0.879040000000     0.970650000000    -0.279607   
O14      O      0.997490000000     0.995140000000     0.497550000000    -0.3692     
O15      O      0.966880000000     0.023590000000     0.379030000000    -0.293576   
O16      O      0.116720000000     0.965970000000     0.465530000000    -0.296091   
O17      O      0.032390000000     0.115030000000     0.522050000000    -0.287719   
O18      O      0.025230000000     0.960820000000     0.380200000000    -0.291437   
O19      O      0.965300000000     0.115120000000     0.468800000000    -0.292022   
O20      O      0.116030000000     0.023170000000     0.528960000000    -0.294702   
O21      O      0.968960000000     0.963110000000     0.616200000000    -0.286141   
O22      O      0.032010000000     0.874610000000     0.473740000000    -0.291126   
O23      O      0.025270000000     0.027630000000     0.615830000000    -0.288558   
O24      O      0.962790000000     0.875830000000     0.524070000000    -0.288548   
O25      O      0.879120000000     0.967400000000     0.529400000000    -0.27858    
O26      O      0.878100000000     0.026630000000     0.468310000000    -0.297668   
O27      O      0.995160000000     0.496880000000     0.995910000000    -0.370694   
O28      O      0.876980000000     0.455920000000     0.971490000000    -0.286911   
O29      O      0.965300000000     0.531710000000     0.112970000000    -0.288816   
O30      O      0.019340000000     0.377780000000     0.033140000000    -0.29625    
O31      O      0.875300000000     0.524660000000     0.022540000000    -0.29304    
O32      O      0.974970000000     0.377290000000     0.960020000000    -0.279238   
O33      O      0.026760000000     0.471960000000     0.113990000000    -0.294964   
O34      O      0.114370000000     0.527620000000     0.969890000000    -0.293094   
O35      O      0.958000000000     0.616190000000     0.018200000000    -0.291919   
O36      O      0.114130000000     0.459520000000     0.021810000000    -0.289101   
O37      O      0.028400000000     0.616850000000     0.969650000000    -0.293644   
O38      O      0.025890000000     0.528620000000     0.878020000000    -0.289519   
O39      O      0.964060000000     0.469280000000     0.878470000000    -0.287266   
O40      O      0.998230000000     0.495330000000     0.495740000000    -0.371217   
O41      O      0.964120000000     0.376560000000     0.519450000000    -0.284123   
O42      O      0.026140000000     0.468300000000     0.375430000000    -0.293527   
O43      O      0.878910000000     0.519480000000     0.459570000000    -0.28468    
O44      O      0.032990000000     0.377700000000     0.467900000000    -0.276145   
O45      O      0.877970000000     0.469270000000     0.528750000000    -0.288089   
O46      O      0.971600000000     0.533680000000     0.379010000000    -0.275855   
O47      O      0.033840000000     0.613070000000     0.523180000000    -0.291515   
O48      O      0.117350000000     0.471280000000     0.459760000000    -0.288063   
O49      O      0.961450000000     0.613760000000     0.476860000000    -0.271682   
O50      O      0.118180000000     0.518180000000     0.531290000000    -0.292937   
O51      O      0.026600000000     0.525340000000     0.615150000000    -0.292272   
O52      O      0.968890000000     0.462670000000     0.613460000000    -0.272915   
O53      O      0.494670000000     0.998550000000     0.000470000000    -0.370048   
O54      O      0.373950000000     0.970320000000     0.981290000000    -0.283387   
O55      O      0.472960000000     0.029360000000     0.119580000000    -0.292007   
O56      O      0.529100000000     0.878460000000     0.018420000000    -0.277344   
O57      O      0.377910000000     0.038510000000     0.033150000000    -0.289502   
O58      O      0.458620000000     0.880700000000     0.969810000000    -0.283947   
O59      O      0.521910000000     0.958850000000     0.117020000000    -0.285248   
O60      O      0.613030000000     0.036780000000     0.976880000000    -0.283655   
O61      O      0.475650000000     0.118700000000     0.033470000000    -0.297593   
O62      O      0.614350000000     0.967770000000     0.027590000000    -0.284213   
O63      O      0.517000000000     0.116220000000     0.958600000000    -0.290001   
O64      O      0.530540000000     0.015970000000     0.882090000000    -0.275816   
O65      O      0.455430000000     0.974220000000     0.883010000000    -0.287863   
O66      O      0.497440000000     0.996940000000     0.500290000000    -0.370311   
O67      O      0.379870000000     0.026330000000     0.527610000000    -0.280401   
O68      O      0.473170000000     0.959580000000     0.381030000000    -0.278548   
O69      O      0.527460000000     0.115340000000     0.471430000000    -0.295161   
O70      O      0.379410000000     0.964460000000     0.468810000000    -0.294372   
O71      O      0.467790000000     0.116170000000     0.532780000000    -0.288081   
O72      O      0.522440000000     0.029610000000     0.379930000000    -0.293352   
O73      O      0.615460000000     0.969630000000     0.529760000000    -0.289625   
O74      O      0.469670000000     0.877220000000     0.473290000000    -0.292035   
O75      O      0.615460000000     0.026510000000     0.465920000000    -0.291424   
O76      O      0.529620000000     0.879410000000     0.533820000000    -0.274429   
O77      O      0.530780000000     0.971590000000     0.620220000000    -0.288365   
O78      O      0.462100000000     0.022530000000     0.620440000000    -0.28439    
O79      O      0.495160000000     0.498530000000     0.996990000000    -0.372037   
O80      O      0.515890000000     0.378870000000     0.034000000000    -0.29165    
O81      O      0.377200000000     0.458720000000     0.969930000000    -0.291302   
O82      O      0.462630000000     0.533190000000     0.112900000000    -0.272498   
O83      O      0.475590000000     0.379510000000     0.958570000000    -0.280119   
O84      O      0.524890000000     0.474570000000     0.115070000000    -0.295583   
O85      O      0.375050000000     0.528710000000     0.019370000000    -0.27753    
O86      O      0.531490000000     0.617520000000     0.971880000000    -0.29106    
O87      O      0.464780000000     0.473780000000     0.879120000000    -0.288564   
O88      O      0.459650000000     0.618890000000     0.018230000000    -0.279616   
O89      O      0.529760000000     0.529630000000     0.881140000000    -0.28721    
O90      O      0.616050000000     0.526680000000     0.973600000000    -0.292639   
O91      O      0.612540000000     0.457380000000     0.023770000000    -0.275485   
O92      O      0.497950000000     0.497170000000     0.497250000000    -0.370988   
O93      O      0.378950000000     0.521390000000     0.464260000000    -0.280913   
O94      O      0.470550000000     0.379020000000     0.530100000000    -0.291748   
O95      O      0.522570000000     0.467480000000     0.376250000000    -0.285149   
O96      O      0.379540000000     0.468230000000     0.531620000000    -0.293464   
O97      O      0.468390000000     0.533370000000     0.379090000000    -0.286053   
O98      O      0.528760000000     0.379630000000     0.467540000000    -0.273908   
O99      O      0.617980000000     0.521430000000     0.528360000000    -0.286293   
O100     O      0.470500000000     0.468150000000     0.618040000000    -0.297221   
O101     O      0.615830000000     0.471620000000     0.458660000000    -0.273646   
O102     O      0.530490000000     0.528320000000     0.615560000000    -0.279609   
O103     O      0.531990000000     0.614040000000     0.526360000000    -0.287697   
O104     O      0.464540000000     0.616030000000     0.473560000000    -0.291505   
O105     O      0.615760000000     0.524510000000     0.674010000000    -0.0730021  
O106     O      0.592920000000     0.600140000000     0.709530000000    -0.0765763  
O107     O      0.468850000000     0.619460000000     0.169420000000    -0.0704256  
O108     O      0.395350000000     0.598420000000     0.210260000000    -0.0759624  
O109     O      0.615150000000     0.821400000000     0.528930000000    -0.0664624  
O110     O      0.592350000000     0.783290000000     0.603380000000    -0.0727612  
O111     O      0.588410000000     0.283590000000     0.397030000000    -0.084318   
O112     O      0.614820000000     0.322370000000     0.469930000000    -0.0743515  
O113     O      0.592240000000     0.839390000000     0.941300000000    -0.0699789  
O114     O      0.632550000000     0.783180000000     0.993410000000    -0.0806418  
O115     O      0.494550000000     0.282940000000     0.857240000000    -0.0836025  
O116     O      0.549820000000     0.336280000000     0.897250000000    -0.0669949  
O117     O      0.631700000000     0.984570000000     0.786850000000    -0.0756071  
O118     O      0.586850000000     0.934710000000     0.841670000000    -0.0683098  
O119     O      0.546560000000     0.894580000000     0.339470000000    -0.0759694  
O120     O      0.493290000000     0.855490000000     0.283460000000    -0.0798844  
O121     O      0.714240000000     0.490560000000     0.354740000000    -0.0797652  
O122     O      0.658950000000     0.544530000000     0.393840000000    -0.0744213  
O123     O      0.283220000000     0.501390000000     0.358870000000    -0.0834924  
O124     O      0.339690000000     0.447960000000     0.397030000000    -0.079773   
O125     O      0.710840000000     0.351220000000     0.002500000000    -0.0777567  
O126     O      0.653810000000     0.391120000000     0.950960000000    -0.0688287  
O127     O      0.278980000000     0.630230000000     0.992290000000    -0.0838803  
O128     O      0.334610000000     0.588750000000     0.940430000000    -0.0823461  
O129     O      0.891250000000     0.409620000000     0.707200000000    -0.076806   
O130     O      0.965890000000     0.379490000000     0.675030000000    -0.0661263  
O131     O      0.896670000000     0.592870000000     0.286030000000    -0.0765076  
O132     O      0.971310000000     0.619390000000     0.321240000000    -0.0712532  
O133     O      0.859330000000     0.710710000000     0.502850000000    -0.0734032  
O134     O      0.900760000000     0.654930000000     0.554540000000    -0.0766157  
O135     O      0.137330000000     0.279840000000     0.492280000000    -0.083496   
O136     O      0.096870000000     0.336720000000     0.543530000000    -0.076282   
O137     O      0.784540000000     0.899380000000     0.593330000000    -0.072885   
O138     O      0.821930000000     0.974360000000     0.615340000000    -0.073162   
O139     O      0.322740000000     0.020410000000     0.613770000000    -0.0800561  
O140     O      0.286000000000     0.095300000000     0.590380000000    -0.0826603  
O141     O      0.892940000000     0.835620000000     0.043130000000    -0.0791185  
O142     O      0.854180000000     0.781020000000     0.988210000000    -0.0829134  
O143     O      0.993870000000     0.279960000000     0.858940000000    -0.0735835  
O144     O      0.049180000000     0.334060000000     0.897870000000    -0.0782125  
O145     O      0.777380000000     0.142980000000     0.010140000000    -0.0797534  
O146     O      0.833870000000     0.105280000000     0.956390000000    -0.0736486  
O147     O      0.280120000000     0.866850000000     0.011640000000    -0.0838702  
O148     O      0.336070000000     0.909340000000     0.062320000000    -0.079663   
O149     O      0.023940000000     0.109960000000     0.824750000000    -0.070088   
O150     O      0.098190000000     0.086340000000     0.786770000000    -0.0800541  
O151     O      0.072940000000     0.879000000000     0.207280000000    -0.0789117  
O152     O      0.108800000000     0.950870000000     0.174830000000    -0.075009   
Zn1      Zn     0.948320000000     0.955120000000     0.956160000000     0.464649   
Zn2      Zn     0.038370000000     0.041070000000     0.955390000000     0.466765   
Zn3      Zn     0.954340000000     0.042350000000     0.043080000000     0.4643     
Zn4      Zn     0.039130000000     0.951480000000     0.037620000000     0.469273   
Zn5      Zn     0.953440000000     0.039010000000     0.454490000000     0.458724   
Zn6      Zn     0.041440000000     0.950240000000     0.455580000000     0.460074   
Zn7      Zn     0.041160000000     0.039260000000     0.540080000000     0.461352   
Zn8      Zn     0.953760000000     0.951400000000     0.540480000000     0.467195   
Zn9      Zn     0.953450000000     0.451380000000     0.953000000000     0.465526   
Zn10     Zn     0.949740000000     0.541070000000     0.036430000000     0.461085   
Zn11     Zn     0.037720000000     0.452870000000     0.039820000000     0.461831   
Zn12     Zn     0.039640000000     0.541320000000     0.954440000000     0.460992   
Zn13     Zn     0.953470000000     0.452010000000     0.537910000000     0.467686   
Zn14     Zn     0.041990000000     0.453890000000     0.450690000000     0.462699   
Zn15     Zn     0.953860000000     0.539380000000     0.454240000000     0.470478   
Zn16     Zn     0.043010000000     0.536990000000     0.539830000000     0.462418   
Zn17     Zn     0.446830000000     0.957410000000     0.959600000000     0.467078   
Zn18     Zn     0.456050000000     0.044950000000     0.045280000000     0.460111   
Zn19     Zn     0.538710000000     0.952160000000     0.040140000000     0.466407   
Zn20     Zn     0.537590000000     0.040730000000     0.955690000000     0.46352    
Zn21     Zn     0.453610000000     0.039760000000     0.544210000000     0.464886   
Zn22     Zn     0.455740000000     0.951330000000     0.456900000000     0.464646   
Zn23     Zn     0.539280000000     0.040700000000     0.455410000000     0.462549   
Zn24     Zn     0.541590000000     0.955630000000     0.544890000000     0.471453   
Zn25     Zn     0.535890000000     0.453650000000     0.041310000000     0.465696   
Zn26     Zn     0.453870000000     0.453870000000     0.952940000000     0.46704    
Zn27     Zn     0.449320000000     0.543540000000     0.036090000000     0.469181   
Zn28     Zn     0.541900000000     0.541950000000     0.957360000000     0.467723   
Zn29     Zn     0.453660000000     0.541020000000     0.455050000000     0.466461   
Zn30     Zn     0.455590000000     0.454510000000     0.542930000000     0.462033   
Zn31     Zn     0.539820000000     0.454980000000     0.451080000000     0.470976   
Zn32     Zn     0.543360000000     0.538770000000     0.540270000000     0.472812   


