data_structure

_audit_creation_method RASPA-1.0
_audit_creation_date 2023-5-19
_audit_author_name 'Poobodin Mano'

_cell_length_a    25.8918
_cell_length_b    25.9098
_cell_length_c    25.9486
_cell_angle_alpha 90
_cell_angle_beta  90
_cell_angle_gamma 90
_cell_volume      17407.7

_symmetry_cell_setting          triclinic
_symmetry_space_group_name_Hall 'P 1'
_symmetry_space_group_name_H-M  'P 1'
_symmetry_Int_Tables_number     1

_symmetry_equiv_pos_as_xyz 'x,y,z'

loop_
_atom_site_label
_atom_site_type_symbol
_atom_site_fract_x
_atom_site_fract_y
_atom_site_fract_z
_atom_site_charge
C1       C      0.994700000000     0.991680000000     0.142960000000     0.370048   
C2       C      0.137670000000     0.988420000000     0.996860000000     0.366779   
C3       C      0.989720000000     0.851590000000     0.001620000000     0.360932   
C4       C      0.997680000000     0.992950000000     0.853030000000     0.365322   
C5       C      0.999460000000     0.136260000000     0.003050000000     0.36173    
C6       C      0.852890000000     0.998770000000     0.990930000000     0.364701   
C7       C      0.994920000000     0.991860000000     0.355690000000     0.363487   
C8       C      0.139330000000     0.990420000000     0.499800000000     0.366789   
C9       C      0.997010000000     0.135960000000     0.496660000000     0.364805   
C10      C      0.998750000000     0.989580000000     0.640170000000     0.365989   
C11      C      0.991770000000     0.848720000000     0.493580000000     0.364117   
C12      C      0.853250000000     0.996310000000     0.503850000000     0.369227   
C13      C      0.998780000000     0.349310000000     0.004750000000     0.368711   
C14      C      0.996930000000     0.494090000000     0.145590000000     0.364989   
C15      C      0.136820000000     0.498340000000     0.001050000000     0.361065   
C16      C      0.991570000000     0.638490000000     0.000120000000     0.370088   
C17      C      0.854310000000     0.492130000000     0.997010000000     0.363874   
C18      C      0.000540000000     0.492200000000     0.855470000000     0.364518   
C19      C      0.997470000000     0.348920000000     0.501870000000     0.368136   
C20      C      0.003640000000     0.491960000000     0.358220000000     0.36675    
C21      C      0.856440000000     0.490120000000     0.501090000000     0.361566   
C22      C      0.990440000000     0.635760000000     0.497780000000     0.367724   
C23      C      0.142310000000     0.495870000000     0.499970000000     0.363187   
C24      C      0.004910000000     0.492510000000     0.642280000000     0.363443   
C25      C      0.491820000000     0.996340000000     0.853280000000     0.36922    
C26      C      0.350800000000     0.990330000000     0.997110000000     0.365131   
C27      C      0.499680000000     0.853700000000     0.997020000000     0.364386   
C28      C      0.497480000000     0.995900000000     0.139640000000     0.367123   
C29      C      0.491190000000     0.137670000000     0.997220000000     0.364131   
C30      C      0.639500000000     0.999710000000     0.991930000000     0.364217   
C31      C      0.353790000000     0.991880000000     0.494090000000     0.369798   
C32      C      0.499600000000     0.996660000000     0.353750000000     0.371843   
C33      C      0.496490000000     0.139670000000     0.495740000000     0.36865    
C34      C      0.639350000000     0.000960000000     0.502220000000     0.375388   
C35      C      0.504450000000     0.853400000000     0.497050000000     0.370433   
C36      C      0.490610000000     0.998370000000     0.639490000000     0.372537   
C37      C      0.501740000000     0.639180000000     0.997750000000     0.371383   
C38      C      0.351580000000     0.502040000000     0.000050000000     0.370185   
C39      C      0.492830000000     0.496320000000     0.855020000000     0.366827   
C40      C      0.489630000000     0.352290000000     0.996820000000     0.369814   
C41      C      0.494840000000     0.494500000000     0.141010000000     0.365787   
C42      C      0.639140000000     0.491050000000     0.997200000000     0.36489    
C43      C      0.355520000000     0.498530000000     0.499610000000     0.368243   
C44      C      0.502750000000     0.353910000000     0.497370000000     0.370382   
C45      C      0.494620000000     0.493580000000     0.355070000000     0.370643   
C46      C      0.642940000000     0.493550000000     0.500980000000     0.370374   
C47      C      0.494670000000     0.498130000000     0.640760000000     0.369373   
C48      C      0.505440000000     0.639030000000     0.495440000000     0.365325   
C49      C      0.460430000000     0.466960000000     0.774120000000     0.0268973  
C50      C      0.525710000000     0.530030000000     0.776520000000    -0.00586602 
C51      C      0.461350000000     0.468070000000     0.720360000000     0.0293928  
C52      C      0.526920000000     0.531930000000     0.722420000000     0.112028   
C53      C      0.564970000000     0.569600000000     0.698550000000    -0.2028     
C54      C      0.464830000000     0.527220000000     0.221450000000     0.0269212  
C55      C      0.522060000000     0.456700000000     0.219960000000    -0.0058981  
C56      C      0.464720000000     0.526080000000     0.275170000000     0.0308289  
C57      C      0.521450000000     0.454290000000     0.274080000000     0.115191   
C58      C      0.550830000000     0.410000000000     0.298690000000    -0.205024   
C59      C      0.475250000000     0.719580000000     0.463580000000     0.0256436  
C60      C      0.540790000000     0.718020000000     0.526350000000    -0.00658753 
C61      C      0.475470000000     0.773250000000     0.464560000000     0.0299619  
C62      C      0.541880000000     0.772350000000     0.527430000000     0.113934   
C63      C      0.581470000000     0.797210000000     0.562650000000    -0.205753   
C64      C      0.466520000000     0.220750000000     0.526560000000     0.0267187  
C65      C      0.533560000000     0.217930000000     0.465410000000    -0.00613466 
C66      C      0.469070000000     0.274390000000     0.526820000000     0.029454   
C67      C      0.536850000000     0.272120000000     0.465400000000     0.112201   
C68      C      0.577690000000     0.296040000000     0.430940000000    -0.203636   
C69      C      0.469090000000     0.772990000000     0.028240000000     0.0267925  
C70      C      0.535740000000     0.774790000000     0.966670000000    -0.00581658 
C71      C      0.470300000000     0.719290000000     0.028050000000     0.0308066  
C72      C      0.537750000000     0.720470000000     0.966300000000     0.115122   
C73      C      0.578110000000     0.695820000000     0.931810000000    -0.206065   
C74      C      0.523800000000     0.218510000000     0.026120000000     0.0270473  
C75      C      0.454060000000     0.216530000000     0.968090000000    -0.00591638 
C76      C      0.522740000000     0.272230000000     0.025610000000     0.0307527  
C77      C      0.452270000000     0.270850000000     0.967330000000     0.115727   
C78      C      0.410400000000     0.295360000000     0.934580000000    -0.207159   
C79      C      0.521480000000     0.964910000000     0.772590000000     0.0266747  
C80      C      0.457850000000     0.029720000000     0.774950000000    -0.00559071 
C81      C      0.520560000000     0.965930000000     0.719070000000     0.0303794  
C82      C      0.456220000000     0.031060000000     0.720790000000     0.115728   
C83      C      0.418430000000     0.068600000000     0.696490000000    -0.206868   
C84      C      0.467650000000     0.964220000000     0.220400000000     0.0266137  
C85      C      0.530800000000     0.029450000000     0.218170000000    -0.00548401 
C86      C      0.468700000000     0.964970000000     0.274040000000     0.0301556  
C87      C      0.532510000000     0.030610000000     0.272340000000     0.114554   
C88      C      0.569980000000     0.068570000000     0.296560000000    -0.204666   
C89      C      0.776320000000     0.493260000000     0.456750000000     0.0252547  
C90      C      0.777270000000     0.487110000000     0.547400000000    -0.00713004 
C91      C      0.722510000000     0.492080000000     0.457200000000     0.0322746  
C92      C      0.722950000000     0.489080000000     0.548540000000     0.114745   
C93      C      0.696440000000     0.485540000000     0.600440000000    -0.206628   
C94      C      0.222880000000     0.452980000000     0.492140000000     0.0266264  
C95      C      0.220780000000     0.542510000000     0.508630000000    -0.00615081 
C96      C      0.276690000000     0.453810000000     0.494570000000     0.0336619  
C97      C      0.275090000000     0.544440000000     0.507360000000     0.117327   
C98      C      0.301170000000     0.595940000000     0.516380000000    -0.209278   
C99      C      0.720030000000     0.460430000000     0.029020000000     0.0273425  
C100     C      0.718350000000     0.521940000000     0.962460000000    -0.00590973 
C101     C      0.773960000000     0.461290000000     0.028390000000     0.030214   
C102     C      0.772690000000     0.523080000000     0.961090000000     0.113901   
C103     C      0.797090000000     0.558770000000     0.921610000000    -0.205567   
C104     C      0.217850000000     0.467670000000     0.970600000000     0.0263348  
C105     C      0.215580000000     0.535170000000     0.031140000000    -0.00643823 
C106     C      0.271570000000     0.469300000000     0.970730000000     0.0308831  
C107     C      0.269950000000     0.537540000000     0.031510000000     0.115689   
C108     C      0.294370000000     0.578280000000     0.065670000000    -0.207247   
C109     C      0.995130000000     0.536470000000     0.775300000000     0.0252745  
C110     C      0.013750000000     0.447410000000     0.776570000000    -0.00594684 
C111     C      0.999270000000     0.536570000000     0.721570000000     0.0320718  
C112     C      0.014380000000     0.446350000000     0.722290000000     0.116526   
C113     C      0.025630000000     0.395510000000     0.695840000000    -0.207714   
C114     C      0.992000000000     0.448940000000     0.225240000000     0.0271371  
C115     C      0.010330000000     0.538130000000     0.224600000000    -0.00514427 
C116     C      0.997110000000     0.448320000000     0.278880000000     0.0333533  
C117     C      0.011780000000     0.538680000000     0.278760000000     0.117801   
C118     C      0.022950000000     0.589340000000     0.305600000000    -0.208834   
C119     C      0.034690000000     0.768330000000     0.485510000000     0.0258135  
C120     C      0.944890000000     0.770200000000     0.500820000000    -0.00674204 
C121     C      0.034160000000     0.714690000000     0.489320000000     0.0328582  
C122     C      0.943290000000     0.715880000000     0.500870000000     0.116055   
C123     C      0.891840000000     0.689610000000     0.509640000000    -0.209089   
C124     C      0.953110000000     0.216240000000     0.489050000000     0.0266133  
C125     C      0.041990000000     0.214660000000     0.509070000000    -0.00553884 
C126     C      0.953070000000     0.269990000000     0.493630000000     0.0336606  
C127     C      0.043150000000     0.268830000000     0.510330000000     0.117097   
C128     C      0.093870000000     0.295040000000     0.523010000000    -0.208202   
C129     C      0.772160000000     0.968430000000     0.536810000000     0.0265648  
C130     C      0.775280000000     0.033340000000     0.473420000000    -0.00579771 
C131     C      0.718430000000     0.970230000000     0.535890000000     0.0297852  
C132     C      0.721210000000     0.036370000000     0.472710000000     0.114622   
C133     C      0.697600000000     0.077290000000     0.438100000000    -0.204467   
C134     C      0.220430000000     0.021370000000     0.529850000000     0.0265639  
C135     C      0.217830000000     0.957360000000     0.465600000000    -0.00678095 
C136     C      0.274130000000     0.021450000000     0.527490000000     0.0304134  
C137     C      0.272070000000     0.956980000000     0.462670000000     0.114422   
C138     C      0.296140000000     0.920490000000     0.423780000000    -0.206269   
C139     C      0.980260000000     0.771290000000     0.045160000000     0.0262475  
C140     C      0.997100000000     0.772920000000     0.955820000000    -0.0064769  
C141     C      0.983530000000     0.717410000000     0.044610000000     0.0336743  
C142     C      0.996470000000     0.718720000000     0.954100000000     0.115975   
C143     C      0.005880000000     0.692600000000     0.902740000000    -0.207343   
C144     C      0.995070000000     0.216600000000     0.959750000000     0.0269375  
C145     C      0.006090000000     0.214860000000     0.049990000000    -0.00522789 
C146     C      0.997350000000     0.270340000000     0.960400000000     0.0345863  
C147     C      0.004200000000     0.269220000000     0.051540000000     0.118199   
C148     C      0.009320000000     0.295770000000     0.103220000000    -0.209702   
C149     C      0.719850000000     0.007030000000     0.035180000000     0.027433   
C150     C      0.718370000000     0.994640000000     0.945140000000    -0.00553742 
C151     C      0.773630000000     0.004440000000     0.034630000000     0.0347268  
C152     C      0.772800000000     0.996120000000     0.943630000000     0.117368   
C153     C      0.799420000000     0.989950000000     0.892100000000    -0.210423   
C154     C      0.270780000000     0.994340000000     0.952410000000     0.0266311  
C155     C      0.271770000000     0.979940000000     0.042190000000    -0.00553985 
C156     C      0.216910000000     0.991050000000     0.952440000000     0.0347921  
C157     C      0.217480000000     0.980470000000     0.043230000000     0.117295   
C158     C      0.190730000000     0.972600000000     0.094480000000    -0.208457   
C159     C      0.993150000000     0.036030000000     0.772380000000     0.0264087  
C160     C      0.004470000000     0.945740000000     0.774910000000    -0.00623181 
C161     C      0.995860000000     0.034820000000     0.718720000000     0.0336108  
C162     C      0.003880000000     0.943650000000     0.720740000000     0.116671   
C163     C      0.010810000000     0.891600000000     0.695150000000    -0.208082   
C164     C      0.950950000000     0.001140000000     0.275860000000     0.0279947  
C165     C      0.039670000000     0.980390000000     0.276780000000    -0.00536832 
C166     C      0.950900000000     0.998410000000     0.222140000000     0.0329621  
C167     C      0.040860000000     0.981110000000     0.222640000000     0.116964   
C168     C      0.091560000000     0.969310000000     0.196100000000    -0.207972   
H1       H      0.434890000000     0.442490000000     0.700440000000     0.042704   
H2       H      0.433570000000     0.440820000000     0.792740000000     0.0416324  
H3       H      0.551610000000     0.555080000000     0.797850000000     0.0477051  
H4       H      0.544240000000     0.598140000000     0.674240000000     0.0899641  
H5       H      0.586390000000     0.592260000000     0.727960000000     0.0696819  
H6       H      0.594470000000     0.548410000000     0.675790000000     0.0863812  
H7       H      0.441670000000     0.555010000000     0.294750000000     0.0424511  
H8       H      0.441630000000     0.556440000000     0.202500000000     0.0421175  
H9       H      0.544820000000     0.428460000000     0.199020000000     0.0507021  
H10      H      0.525630000000     0.388940000000     0.326210000000     0.0879035  
H11      H      0.563710000000     0.380990000000     0.269880000000     0.0724199  
H12      H      0.586010000000     0.424690000000     0.318280000000     0.0907184  
H13      H      0.448380000000     0.792620000000     0.439220000000     0.0407776  
H14      H      0.448320000000     0.700700000000     0.437710000000     0.0416999  
H15      H      0.567130000000     0.696940000000     0.551150000000     0.0476058  
H16      H      0.561780000000     0.818160000000     0.594390000000     0.0910802  
H17      H      0.607410000000     0.768360000000     0.580920000000     0.0718298  
H18      H      0.606760000000     0.823620000000     0.540310000000     0.0915062  
H19      H      0.442220000000     0.294320000000     0.551980000000     0.0429262  
H20      H      0.438340000000     0.202360000000     0.551440000000     0.0411488  
H21      H      0.559680000000     0.196380000000     0.440780000000     0.045966   
H22      H      0.604470000000     0.320150000000     0.454130000000     0.0902941  
H23      H      0.601940000000     0.266530000000     0.411440000000     0.0699739  
H24      H      0.559140000000     0.319190000000     0.400060000000     0.0861436  
H25      H      0.443100000000     0.699800000000     0.053190000000     0.0415149  
H26      H      0.441430000000     0.791760000000     0.053400000000     0.0436528  
H27      H      0.562190000000     0.795960000000     0.942060000000     0.0505223  
H28      H      0.559090000000     0.673610000000     0.900520000000     0.0906876  
H29      H      0.603330000000     0.724880000000     0.912880000000     0.0729552  
H30      H      0.604000000000     0.670640000000     0.954860000000     0.091632   
H31      H      0.551230000000     0.291800000000     0.049210000000     0.0431574  
H32      H      0.552650000000     0.199790000000     0.049970000000     0.0436779  
H33      H      0.426320000000     0.195300000000     0.944990000000     0.0510771  
H34      H      0.427990000000     0.317590000000     0.902490000000     0.0931316  
H35      H      0.384470000000     0.266240000000     0.916750000000     0.075233   
H36      H      0.385460000000     0.320500000000     0.958710000000     0.0930929  
H37      H      0.546490000000     0.939600000000     0.699430000000     0.0409531  
H38      H      0.547790000000     0.938140000000     0.791130000000     0.0422331  
H39      H      0.432550000000     0.055350000000     0.796320000000     0.0507001  
H40      H      0.390200000000     0.047480000000     0.672130000000     0.092587   
H41      H      0.395510000000     0.090020000000     0.725700000000     0.0745226  
H42      H      0.439550000000     0.097990000000     0.673560000000     0.0927487  
H43      H      0.443040000000     0.938420000000     0.293740000000     0.0407539  
H44      H      0.441480000000     0.937380000000     0.201770000000     0.0425995  
H45      H      0.555840000000     0.055390000000     0.196870000000     0.0504873  
H46      H      0.599000000000     0.047690000000     0.320200000000     0.0884743  
H47      H      0.592030000000     0.090830000000     0.267310000000     0.0721848  
H48      H      0.548690000000     0.097300000000     0.320150000000     0.0900562  
H49      H      0.702550000000     0.494030000000     0.420460000000     0.038124   
H50      H      0.795740000000     0.495050000000     0.419750000000     0.0421574  
H51      H      0.798190000000     0.484770000000     0.583580000000     0.0481234  
H52      H      0.664700000000     0.456750000000     0.599150000000     0.0862683  
H53      H      0.723450000000     0.472930000000     0.631250000000     0.0732727  
H54      H      0.680910000000     0.523920000000     0.611480000000     0.0858663  
H55      H      0.297270000000     0.417730000000     0.489090000000     0.0380087  
H56      H      0.203830000000     0.416210000000     0.485920000000     0.0387381  
H57      H      0.199340000000     0.578000000000     0.514730000000     0.0483227  
H58      H      0.316990000000     0.610850000000     0.479520000000     0.0913487  
H59      H      0.273810000000     0.625160000000     0.531770000000     0.0754274  
H60      H      0.332730000000     0.591900000000     0.545070000000     0.0878348  
H61      H      0.793550000000     0.436300000000     0.055630000000     0.0438997  
H62      H      0.701110000000     0.435130000000     0.056430000000     0.0434035  
H63      H      0.697250000000     0.546400000000     0.935830000000     0.0480482  
H64      H      0.821480000000     0.536320000000     0.894490000000     0.0917705  
H65      H      0.767880000000     0.579090000000     0.897680000000     0.0718301  
H66      H      0.820000000000     0.589190000000     0.941250000000     0.0918952  
H67      H      0.291220000000     0.441910000000     0.945940000000     0.0415959  
H68      H      0.199270000000     0.439500000000     0.945850000000     0.0439455  
H69      H      0.194220000000     0.561800000000     0.055390000000     0.0511457  
H70      H      0.318940000000     0.604480000000     0.042310000000     0.0928608  
H71      H      0.265130000000     0.603050000000     0.084910000000     0.0751928  
H72      H      0.317230000000     0.559660000000     0.096740000000     0.0932059  
H73      H      0.993280000000     0.572770000000     0.701390000000     0.0361954  
H74      H      0.987320000000     0.572750000000     0.794650000000     0.0367661  
H75      H      0.020080000000     0.411690000000     0.797520000000     0.0490067  
H76      H      0.053630000000     0.401080000000     0.663900000000     0.0848895  
H77      H      0.043040000000     0.367080000000     0.722800000000     0.0750758  
H78      H      0.989250000000     0.378790000000     0.680570000000     0.0908669  
H79      H      0.991620000000     0.411960000000     0.298910000000     0.0375976  
H80      H      0.984070000000     0.412850000000     0.205570000000     0.0381293  
H81      H      0.016200000000     0.574080000000     0.203900000000     0.0491547  
H82      H      0.051240000000     0.583630000000     0.337260000000     0.0867752  
H83      H      0.039940000000     0.618130000000     0.278770000000     0.0759071  
H84      H      0.986600000000     0.605650000000     0.321370000000     0.0918461  
H85      H      0.070510000000     0.694300000000     0.484870000000     0.0364349  
H86      H      0.071480000000     0.787420000000     0.479430000000     0.0401731  
H87      H      0.909200000000     0.791560000000     0.506060000000     0.04802    
H88      H      0.895370000000     0.659790000000     0.540170000000     0.0861392  
H89      H      0.861700000000     0.717320000000     0.522420000000     0.0743943  
H90      H      0.878410000000     0.671510000000     0.473260000000     0.0920031  
H91      H      0.917050000000     0.290470000000     0.487340000000     0.0372747  
H92      H      0.916900000000     0.196950000000     0.480670000000     0.0411131  
H93      H      0.077570000000     0.193550000000     0.515890000000     0.0493139  
H94      H      0.087840000000     0.326340000000     0.551630000000     0.0843592  
H95      H      0.122070000000     0.267660000000     0.540190000000     0.0747206  
H96      H      0.111220000000     0.311180000000     0.487370000000     0.091875   
H97      H      0.698170000000     0.943890000000     0.561300000000     0.0401003  
H98      H      0.790510000000     0.941220000000     0.562750000000     0.0414804  
H99      H      0.796930000000     0.059050000000     0.448440000000     0.0508029  
H100     H      0.671030000000     0.102330000000     0.460540000000     0.0900223  
H101     H      0.727160000000     0.103420000000     0.421270000000     0.0720483  
H102     H      0.677110000000     0.058850000000     0.405320000000     0.08777    
H103     H      0.294000000000     0.047710000000     0.553300000000     0.0411015  
H104     H      0.201920000000     0.047490000000     0.556790000000     0.0425143  
H105     H      0.196350000000     0.931580000000     0.440560000000     0.0499573  
H106     H      0.319990000000     0.891090000000     0.443830000000     0.0915293  
H107     H      0.266700000000     0.899030000000     0.401150000000     0.0728944  
H108     H      0.319620000000     0.942460000000     0.395480000000     0.0913733  
H109     H      0.978430000000     0.696830000000     0.080680000000     0.036985   
H110     H      0.973760000000     0.790610000000     0.081670000000     0.0405902  
H111     H      0.003070000000     0.794150000000     0.920230000000     0.0482606  
H112     H      0.969380000000     0.675330000000     0.888380000000     0.0889401  
H113     H      0.019910000000     0.720220000000     0.873120000000     0.0739434  
H114     H      0.035820000000     0.662170000000     0.906660000000     0.0875034  
H115     H      0.994150000000     0.290730000000     0.923990000000     0.0376251  
H116     H      0.991160000000     0.197400000000     0.922790000000     0.0419104  
H117     H      0.010040000000     0.193550000000     0.085790000000     0.048712   
H118     H      0.971280000000     0.311410000000     0.115260000000     0.0921711  
H119     H      0.022830000000     0.268770000000     0.133640000000     0.0766787  
H120     H      0.037970000000     0.327570000000     0.100950000000     0.0881753  
H121     H      0.793930000000     0.007940000000     0.071070000000     0.0389682  
H122     H      0.700580000000     0.011520000000     0.072030000000     0.0420095  
H123     H      0.697150000000     0.990160000000     0.909340000000     0.0486203  
H124     H      0.829710000000     0.959700000000     0.894480000000     0.0871006  
H125     H      0.772010000000     0.978090000000     0.861360000000     0.0760999  
H126     H      0.817080000000     0.027180000000     0.880400000000     0.0938643  
H127     H      0.196650000000     0.995440000000     0.916090000000     0.0376983  
H128     H      0.290350000000     0.000110000000     0.915910000000     0.0420839  
H129     H      0.292680000000     0.975080000000     0.078130000000     0.0485064  
H130     H      0.158220000000     0.944950000000     0.090430000000     0.082766   
H131     H      0.217350000000     0.956400000000     0.123920000000     0.0723755  
H132     H      0.176090000000     0.010160000000     0.108950000000     0.0879407  
H133     H      0.992380000000     0.071090000000     0.698080000000     0.0392     
H134     H      0.988780000000     0.073170000000     0.791180000000     0.0415303  
H135     H      0.008350000000     0.910000000000     0.796410000000     0.047811   
H136     H      0.039910000000     0.894110000000     0.663820000000     0.0881041  
H137     H      0.024830000000     0.861950000000     0.722740000000     0.0744224  
H138     H      0.973330000000     0.878160000000     0.679300000000     0.0906398  
H139     H      0.914860000000     0.005610000000     0.202030000000     0.0388547  
H140     H      0.914800000000     0.009260000000     0.295380000000     0.041522   
H141     H      0.075210000000     0.972740000000     0.297640000000     0.0483363  
H142     H      0.108570000000     0.005530000000     0.180860000000     0.0871135  
H143     H      0.119980000000     0.951670000000     0.222930000000     0.0719541  
H144     H      0.085600000000     0.941360000000     0.164220000000     0.082845   
N1       N      0.492870000000     0.497650000000     0.802130000000    -0.161964   
N2       N      0.494550000000     0.499950000000     0.694010000000    -0.181606   
N3       N      0.494030000000     0.493010000000     0.193900000000    -0.160969   
N4       N      0.493720000000     0.490720000000     0.301940000000    -0.181903   
N5       N      0.507350000000     0.691960000000     0.494940000000    -0.161781   
N6       N      0.507820000000     0.800170000000     0.496790000000    -0.182057   
N7       N      0.498620000000     0.192560000000     0.495800000000    -0.162856   
N8       N      0.503610000000     0.300630000000     0.496250000000    -0.181997   
N9       N      0.501490000000     0.800740000000     0.997320000000    -0.160452   
N10      N      0.503880000000     0.692480000000     0.996980000000    -0.182035   
N11      N      0.489700000000     0.190650000000     0.997200000000    -0.16041    
N12      N      0.487640000000     0.298960000000     0.996170000000    -0.181475   
N13      N      0.490400000000     0.996960000000     0.800500000000    -0.162222   
N14      N      0.488520000000     0.998910000000     0.692630000000    -0.182905   
N15      N      0.498590000000     0.996470000000     0.192500000000    -0.161651   
N16      N      0.500750000000     0.997870000000     0.300540000000    -0.182524   
N17      N      0.803550000000     0.490110000000     0.501750000000    -0.16086    
N18      N      0.695820000000     0.491650000000     0.502750000000    -0.184166   
N19      N      0.195140000000     0.497120000000     0.500120000000    -0.161027   
N20      N      0.302700000000     0.499410000000     0.500510000000    -0.183395   
N21      N      0.692240000000     0.490970000000     0.996300000000    -0.16093    
N22      N      0.800850000000     0.492520000000     0.994970000000    -0.179772   
N23      N      0.189830000000     0.500360000000     0.000940000000    -0.160021   
N24      N      0.298210000000     0.503590000000     0.001170000000    -0.181968   
N25      N      0.002960000000     0.492030000000     0.802660000000    -0.160812   
N26      N      0.006790000000     0.491500000000     0.695070000000    -0.182013   
N27      N      0.999360000000     0.493690000000     0.198300000000    -0.161179   
N28      N      0.004930000000     0.493210000000     0.305550000000    -0.182662   
N29      N      0.990360000000     0.795940000000     0.492750000000    -0.161493   
N30      N      0.988700000000     0.688500000000     0.495900000000    -0.184338   
N31      N      0.997380000000     0.188780000000     0.497680000000    -0.16084    
N32      N      0.998110000000     0.296170000000     0.502400000000    -0.184096   
N33      N      0.800450000000     0.999300000000     0.504920000000    -0.162447   
N34      N      0.692520000000     0.003090000000     0.503300000000    -0.183297   
N35      N      0.192300000000     0.989590000000     0.498740000000    -0.161893   
N36      N      0.300490000000     0.989630000000     0.494180000000    -0.182329   
N37      N      0.988570000000     0.798780000000     0.001030000000    -0.160291   
N38      N      0.990310000000     0.691270000000     0.999220000000    -0.183949   
N39      N      0.000280000000     0.189050000000     0.004370000000    -0.159479   
N40      N      0.000070000000     0.296550000000     0.006060000000    -0.183081   
N41      N      0.692370000000     0.000710000000     0.990680000000    -0.159901   
N42      N      0.800060000000     0.000160000000     0.989130000000    -0.182005   
N43      N      0.297970000000     0.988180000000     0.997180000000    -0.16045    
N44      N      0.190420000000     0.986300000000     0.997780000000    -0.183029   
N45      N      0.998310000000     0.991630000000     0.800300000000    -0.162016   
N46      N      0.999580000000     0.988860000000     0.692930000000    -0.183313   
N47      N      0.995130000000     0.991300000000     0.302960000000    -0.16103    
N48      N      0.995860000000     0.990230000000     0.195640000000    -0.183986   
O1       O      0.995050000000     0.993880000000     0.998140000000    -0.36733    
O2       O      0.957320000000     0.970820000000     0.118820000000    -0.300955   
O3       O      0.114220000000     0.016860000000     0.029400000000    -0.306111   
O4       O      0.018100000000     0.875050000000     0.969010000000    -0.301528   
O5       O      0.030630000000     0.014430000000     0.118500000000    -0.308928   
O6       O      0.962290000000     0.876790000000     0.034040000000    -0.295797   
O7       O      0.112660000000     0.961830000000     0.963710000000    -0.298344   
O8       O      0.975140000000     0.029810000000     0.876450000000    -0.301713   
O9       O      0.025100000000     0.110360000000     0.036330000000    -0.295829   
O10      O      0.019600000000     0.957140000000     0.878450000000    -0.302406   
O11      O      0.973330000000     0.113530000000     0.968050000000    -0.298539   
O12      O      0.879460000000     0.025370000000     0.959000000000    -0.300761   
O13      O      0.874800000000     0.971730000000     0.025770000000    -0.299118   
O14      O      0.995950000000     0.992310000000     0.498110000000    -0.370045   
O15      O      0.961920000000     0.019470000000     0.379730000000    -0.298497   
O16      O      0.114140000000     0.961530000000     0.469150000000    -0.30587    
O17      O      0.029870000000     0.111140000000     0.523580000000    -0.300573   
O18      O      0.027910000000     0.964760000000     0.380270000000    -0.30021    
O19      O      0.963470000000     0.111990000000     0.469720000000    -0.298666   
O20      O      0.115500000000     0.020590000000     0.530570000000    -0.300606   
O21      O      0.973860000000     0.954860000000     0.615670000000    -0.30552    
O22      O      0.027040000000     0.872780000000     0.468990000000    -0.300105   
O23      O      0.021780000000     0.025960000000     0.616190000000    -0.29939    
O24      O      0.958580000000     0.873350000000     0.520200000000    -0.303123   
O25      O      0.877150000000     0.966170000000     0.534530000000    -0.30166    
O26      O      0.878160000000     0.023500000000     0.471480000000    -0.305866   
O27      O      0.995820000000     0.493640000000     0.000860000000    -0.36497    
O28      O      0.025580000000     0.373290000000     0.971230000000    -0.300486   
O29      O      0.968770000000     0.461390000000     0.121920000000    -0.300187   
O30      O      0.111240000000     0.529130000000     0.029950000000    -0.299269   
O31      O      0.969960000000     0.373860000000     0.036070000000    -0.304244   
O32      O      0.113510000000     0.465650000000     0.972320000000    -0.298574   
O33      O      0.023320000000     0.527090000000     0.120500000000    -0.300606   
O34      O      0.967260000000     0.612880000000     0.966020000000    -0.309114   
O35      O      0.877610000000     0.463210000000     0.029730000000    -0.296287   
O36      O      0.017520000000     0.615450000000     0.034870000000    -0.301443   
O37      O      0.880540000000     0.520720000000     0.966730000000    -0.307322   
O38      O      0.973240000000     0.525900000000     0.878690000000    -0.304436   
O39      O      0.025790000000     0.458730000000     0.881180000000    -0.299486   
O40      O      0.999460000000     0.492410000000     0.500210000000    -0.370648   
O41      O      0.961560000000     0.373370000000     0.525110000000    -0.300872   
O42      O      0.027800000000     0.456450000000     0.382530000000    -0.297458   
O43      O      0.880320000000     0.509610000000     0.462710000000    -0.300982   
O44      O      0.032830000000     0.373050000000     0.477860000000    -0.30749    
O45      O      0.881460000000     0.470930000000     0.538940000000    -0.299746   
O46      O      0.976950000000     0.525590000000     0.382250000000    -0.305779   
O47      O      0.027260000000     0.613850000000     0.521870000000    -0.303489   
O48      O      0.118800000000     0.461550000000     0.473610000000    -0.301757   
O49      O      0.956710000000     0.609090000000     0.473890000000    -0.307008   
O50      O      0.117090000000     0.528970000000     0.526290000000    -0.300324   
O51      O      0.026570000000     0.529470000000     0.617690000000    -0.297635   
O52      O      0.979900000000     0.457430000000     0.618390000000    -0.305226   
O53      O      0.495130000000     0.995570000000     0.996360000000    -0.36842    
O54      O      0.521750000000     0.965120000000     0.876650000000    -0.303235   
O55      O      0.374060000000     0.017340000000     0.963260000000    -0.299564   
O56      O      0.467640000000     0.877240000000     0.026160000000    -0.299723   
O57      O      0.463240000000     0.027120000000     0.878760000000    -0.303617   
O58      O      0.529920000000     0.879050000000     0.967450000000    -0.300048   
O59      O      0.376330000000     0.965620000000     0.031160000000    -0.29969    
O60      O      0.526220000000     0.026740000000     0.114300000000    -0.302134   
O61      O      0.459060000000     0.112320000000     0.969720000000    -0.300375   
O62      O      0.467790000000     0.964580000000     0.116050000000    -0.301695   
O63      O      0.524830000000     0.114070000000     0.024480000000    -0.299465   
O64      O      0.615380000000     0.024160000000     0.027180000000    -0.298463   
O65      O      0.614790000000     0.973710000000     0.958280000000    -0.299246   
O66      O      0.496480000000     0.996400000000     0.496950000000    -0.371624   
O67      O      0.376820000000     0.024780000000     0.522580000000    -0.305075   
O68      O      0.469340000000     0.965570000000     0.377150000000    -0.304499   
O69      O      0.527290000000     0.114230000000     0.467170000000    -0.310335   
O70      O      0.380260000000     0.961240000000     0.466260000000    -0.309891   
O71      O      0.464340000000     0.116110000000     0.524620000000    -0.304306   
O72      O      0.528430000000     0.026420000000     0.379860000000    -0.314559   
O73      O      0.615170000000     0.971780000000     0.533580000000    -0.307456   
O74      O      0.473790000000     0.876260000000     0.465950000000    -0.304152   
O75      O      0.614140000000     0.027220000000     0.469490000000    -0.316419   
O76      O      0.531150000000     0.879950000000     0.528450000000    -0.311215   
O77      O      0.521960000000     0.968070000000     0.616640000000    -0.306447   
O78      O      0.461960000000     0.028060000000     0.612990000000    -0.31124    
O79      O      0.495240000000     0.495540000000     0.998240000000    -0.367499   
O80      O      0.529830000000     0.612550000000     0.967650000000    -0.311358   
O81      O      0.378230000000     0.531210000000     0.029170000000    -0.309289   
O82      O      0.461340000000     0.467080000000     0.879040000000    -0.302209   
O83      O      0.470750000000     0.616260000000     0.028410000000    -0.304383   
O84      O      0.524500000000     0.524510000000     0.879980000000    -0.306165   
O85      O      0.374530000000     0.470550000000     0.969930000000    -0.304153   
O86      O      0.521820000000     0.375300000000     0.026230000000    -0.301229   
O87      O      0.466870000000     0.527120000000     0.117020000000    -0.302368   
O88      O      0.459980000000     0.378800000000     0.968070000000    -0.309373   
O89      O      0.523410000000     0.463010000000     0.116090000000    -0.300792   
O90      O      0.614680000000     0.461720000000     0.028340000000    -0.298512   
O91      O      0.614410000000     0.520920000000     0.966930000000    -0.305113   
O92      O      0.498750000000     0.496620000000     0.497930000000    -0.369867   
O93      O      0.380130000000     0.533150000000     0.474780000000    -0.305389   
O94      O      0.471340000000     0.377230000000     0.527290000000    -0.303324   
O95      O      0.526820000000     0.466780000000     0.380450000000    -0.313472   
O96      O      0.379480000000     0.462320000000     0.522830000000    -0.300779   
O97      O      0.464100000000     0.524160000000     0.378980000000    -0.299684   
O98      O      0.532160000000     0.380090000000     0.468090000000    -0.313152   
O99      O      0.618060000000     0.518690000000     0.535030000000    -0.310781   
O100     O      0.465180000000     0.466640000000     0.616760000000    -0.30031    
O101     O      0.619030000000     0.470880000000     0.464490000000    -0.306738   
O102     O      0.524790000000     0.527110000000     0.615270000000    -0.315348   
O103     O      0.534520000000     0.613670000000     0.526060000000    -0.304744   
O104     O      0.473710000000     0.615490000000     0.466080000000    -0.304052   
Zn1      Zn     0.948660000000     0.954310000000     0.043030000000     0.446986   
Zn2      Zn     0.039810000000     0.033310000000     0.044010000000     0.449652   
Zn3      Zn     0.035590000000     0.948650000000     0.953710000000     0.451452   
Zn4      Zn     0.956760000000     0.039380000000     0.951640000000     0.448392   
Zn5      Zn     0.951850000000     0.035750000000     0.455450000000     0.455393   
Zn6      Zn     0.039700000000     0.948840000000     0.455400000000     0.454596   
Zn7      Zn     0.039540000000     0.036200000000     0.540950000000     0.452594   
Zn8      Zn     0.952700000000     0.947940000000     0.540950000000     0.450909   
Zn9      Zn     0.038680000000     0.448920000000     0.957570000000     0.449997   
Zn10     Zn     0.953620000000     0.449560000000     0.045950000000     0.446167   
Zn11     Zn     0.035570000000     0.540180000000     0.045140000000     0.451274   
Zn12     Zn     0.955570000000     0.536870000000     0.954130000000     0.446773   
Zn13     Zn     0.956610000000     0.449600000000     0.544380000000     0.446711   
Zn14     Zn     0.043400000000     0.447210000000     0.459280000000     0.450352   
Zn15     Zn     0.954510000000     0.532870000000     0.456110000000     0.44976    
Zn16     Zn     0.041220000000     0.539950000000     0.540790000000     0.449215   
Zn17     Zn     0.539280000000     0.954560000000     0.951180000000     0.453505   
Zn18     Zn     0.449030000000     0.036950000000     0.953730000000     0.455506   
Zn19     Zn     0.452730000000     0.952120000000     0.041070000000     0.453059   
Zn20     Zn     0.539410000000     0.038880000000     0.039110000000     0.453351   
Zn21     Zn     0.451160000000     0.040440000000     0.537620000000     0.454861   
Zn22     Zn     0.456100000000     0.951010000000     0.452680000000     0.451232   
Zn23     Zn     0.539960000000     0.039440000000     0.454540000000     0.4592     
Zn24     Zn     0.539820000000     0.955390000000     0.542620000000     0.455717   
Zn25     Zn     0.539670000000     0.536960000000     0.954570000000     0.455109   
Zn26     Zn     0.454190000000     0.541390000000     0.041850000000     0.452495   
Zn27     Zn     0.449130000000     0.454370000000     0.954950000000     0.452164   
Zn28     Zn     0.537990000000     0.450180000000     0.040870000000     0.451402   
Zn29     Zn     0.455340000000     0.541040000000     0.455290000000     0.450598   
Zn30     Zn     0.454940000000     0.451900000000     0.540190000000     0.450642   
Zn31     Zn     0.543320000000     0.455420000000     0.454260000000     0.453843   
Zn32     Zn     0.542920000000     0.537960000000     0.541810000000     0.453079   


