data_structure

_audit_creation_method RASPA-1.0
_audit_creation_date 2023-5-19
_audit_author_name 'Poobodin Mano'

_cell_length_a    25.8917
_cell_length_b    25.8757
_cell_length_c    25.8761
_cell_angle_alpha 90
_cell_angle_beta  90
_cell_angle_gamma 90
_cell_volume      17336.1

_symmetry_cell_setting          triclinic
_symmetry_space_group_name_Hall 'P 1'
_symmetry_space_group_name_H-M  'P 1'
_symmetry_Int_Tables_number     1

_symmetry_equiv_pos_as_xyz 'x,y,z'

loop_
_atom_site_label
_atom_site_type_symbol
_atom_site_fract_x
_atom_site_fract_y
_atom_site_fract_z
_atom_site_charge
C1       C      0.992340000000     0.992470000000     0.135590000000     0.370741   
C2       C      0.135140000000     0.998380000000     0.990420000000     0.374736   
C3       C      0.996760000000     0.849820000000     0.991700000000     0.371214   
C4       C      0.994250000000     0.992830000000     0.847080000000     0.376378   
C5       C      0.988730000000     0.136080000000     0.991320000000     0.377538   
C6       C      0.849740000000     0.990350000000     0.991470000000     0.366791   
C7       C      0.996430000000     0.999270000000     0.349010000000     0.370036   
C8       C      0.140060000000     0.997590000000     0.492340000000     0.37087    
C9       C      0.999060000000     0.143610000000     0.495030000000     0.373754   
C10      C      0.996630000000     0.995480000000     0.633910000000     0.368983   
C11      C      0.995770000000     0.854570000000     0.490330000000     0.371461   
C12      C      0.855010000000     0.002480000000     0.493000000000     0.373365   
C13      C      0.992570000000     0.349350000000     0.990840000000     0.368156   
C14      C      0.004970000000     0.499180000000     0.137880000000     0.37343    
C15      C      0.139350000000     0.483970000000     0.994730000000     0.373713   
C16      C      0.997480000000     0.636230000000     0.989530000000     0.373188   
C17      C      0.854870000000     0.489810000000     0.003300000000     0.369879   
C18      C      0.998660000000     0.500470000000     0.850960000000     0.372831   
C19      C      0.999570000000     0.356580000000     0.501560000000     0.374      
C20      C      0.009570000000     0.498920000000     0.351480000000     0.366253   
C21      C      0.859090000000     0.500060000000     0.488960000000     0.375696   
C22      C      0.996820000000     0.641670000000     0.496300000000     0.375159   
C23      C      0.146660000000     0.499900000000     0.493080000000     0.373655   
C24      C      0.003550000000     0.503120000000     0.637680000000     0.372428   
C25      C      0.348260000000     0.991670000000     0.992450000000     0.369505   
C26      C      0.497320000000     0.129840000000     0.994140000000     0.371232   
C27      C      0.493130000000     0.988970000000     0.136900000000     0.377136   
C28      C      0.636610000000     0.982930000000     0.993010000000     0.374407   
C29      C      0.493660000000     0.990040000000     0.850230000000     0.37271    
C30      C      0.489830000000     0.845450000000     0.995730000000     0.370716   
C31      C      0.354600000000     0.996900000000     0.496370000000     0.371847   
C32      C      0.498430000000     0.993890000000     0.351020000000     0.374239   
C33      C      0.499220000000     0.141820000000     0.494580000000     0.375323   
C34      C      0.641320000000     0.005840000000     0.495310000000     0.377416   
C35      C      0.504080000000     0.854940000000     0.494130000000     0.371991   
C36      C      0.499480000000     0.999330000000     0.636720000000     0.376185   
C37      C      0.353750000000     0.479880000000     0.994990000000     0.37549    
C38      C      0.500030000000     0.492650000000     0.855550000000     0.37059    
C39      C      0.493850000000     0.630900000000     0.002760000000     0.373791   
C40      C      0.640450000000     0.491050000000     0.008100000000     0.372572   
C41      C      0.503640000000     0.344010000000     0.994530000000     0.374425   
C42      C      0.487260000000     0.483430000000     0.141970000000     0.37777    
C43      C      0.359560000000     0.501390000000     0.499520000000     0.376313   
C44      C      0.507890000000     0.355600000000     0.503190000000     0.374487   
C45      C      0.493560000000     0.491650000000     0.355460000000     0.376113   
C46      C      0.646070000000     0.500940000000     0.492300000000     0.377613   
C47      C      0.498900000000     0.501710000000     0.641040000000     0.374519   
C48      C      0.511060000000     0.640860000000     0.492990000000     0.376464   
C49      C      0.470230000000     0.462880000000     0.773750000000     0.0406115  
C50      C      0.527090000000     0.533650000000     0.777730000000     0.045333   
C51      C      0.469760000000     0.466220000000     0.720000000000     0.0375182  
C52      C      0.525560000000     0.538680000000     0.723660000000     0.0319683  
C53      C      0.525860000000     0.460750000000     0.275400000000     0.0434541  
C54      C      0.449370000000     0.509970000000     0.276880000000     0.0479127  
C55      C      0.523510000000     0.458560000000     0.221790000000     0.0394801  
C56      C      0.445000000000     0.505520000000     0.222950000000     0.0362229  
C57      C      0.471340000000     0.773540000000     0.466990000000     0.0400627  
C58      C      0.547560000000     0.776920000000     0.516450000000     0.0435634  
C59      C      0.474140000000     0.719860000000     0.466380000000     0.0361127  
C60      C      0.552070000000     0.722830000000     0.514190000000     0.0282732  
C61      C      0.530830000000     0.222300000000     0.463260000000     0.0432623  
C62      C      0.478010000000     0.220330000000     0.537270000000     0.0478415  
C63      C      0.533770000000     0.275940000000     0.466800000000     0.0373217  
C64      C      0.482390000000     0.274120000000     0.542550000000     0.0355544  
C65      C      0.520690000000     0.764350000000     0.965390000000     0.0401736  
C66      C      0.461170000000     0.766840000000     0.034000000000     0.046114   
C67      C      0.521630000000     0.710640000000     0.968130000000     0.0344833  
C68      C      0.463100000000     0.712730000000     0.038480000000     0.0316846  
C69      C      0.466050000000     0.211310000000     0.965410000000     0.0395853  
C70      C      0.537680000000     0.207790000000     0.021270000000     0.0433378  
C71      C      0.468810000000     0.264990000000     0.965280000000     0.0350083  
C72      C      0.541830000000     0.261870000000     0.020420000000     0.0255081  
C73      C      0.519690000000     0.955780000000     0.769100000000     0.0379938  
C74      C      0.474230000000     0.034550000000     0.772370000000     0.0428469  
C75      C      0.521430000000     0.959060000000     0.715480000000     0.033948   
C76      C      0.478070000000     0.039680000000     0.718590000000     0.0270712  
C77      C      0.460440000000     0.962580000000     0.218740000000     0.0404616  
C78      C      0.532980000000     0.017200000000     0.214420000000     0.0470361  
C79      C      0.462680000000     0.963990000000     0.272500000000     0.0347638  
C80      C      0.536960000000     0.017420000000     0.268400000000     0.033466   
C81      C      0.779650000000     0.495690000000     0.534100000000     0.0430024  
C82      C      0.779410000000     0.508470000000     0.443830000000     0.0508188  
C83      C      0.726000000000     0.498340000000     0.534720000000     0.0406851  
C84      C      0.725100000000     0.508050000000     0.443580000000     0.0312405  
C85      C      0.227230000000     0.456590000000     0.485830000000     0.0409233  
C86      C      0.225100000000     0.545860000000     0.504370000000     0.0475522  
C87      C      0.280900000000     0.457030000000     0.490590000000     0.0406001  
C88      C      0.279220000000     0.547390000000     0.506000000000     0.034473   
C89      C      0.773630000000     0.514760000000     0.968770000000     0.0383499  
C90      C      0.776390000000     0.467430000000     0.046340000000     0.0438736  
C91      C      0.719980000000     0.515400000000     0.970880000000     0.0343535  
C92      C      0.722170000000     0.469890000000     0.050230000000     0.028585   
C93      C      0.220450000000     0.514090000000     0.025060000000     0.0414526  
C94      C      0.217680000000     0.444410000000     0.966780000000     0.046739   
C95      C      0.274040000000     0.512430000000     0.024560000000     0.0363574  
C96      C      0.271980000000     0.441630000000     0.966450000000     0.0340785  
C97      C      0.957670000000     0.496570000000     0.716800000000     0.0400788  
C98      C      0.047160000000     0.513570000000     0.718000000000     0.0486305  
C99      C      0.956450000000     0.498790000000     0.770650000000     0.0369976  
C100     C      0.047010000000     0.512110000000     0.772350000000     0.0340967  
C101     C      0.018290000000     0.455430000000     0.270990000000     0.0390302  
C102     C      0.003330000000     0.545290000000     0.272390000000     0.0469293  
C103     C      0.014460000000     0.455800000000     0.217160000000     0.0370767  
C104     C      0.002820000000     0.546670000000     0.218050000000     0.0278267  
C105     C      0.040360000000     0.774600000000     0.486560000000     0.0390764  
C106     C      0.950040000000     0.775520000000     0.498800000000     0.0468979  
C107     C      0.040340000000     0.720950000000     0.491190000000     0.0367322  
C108     C      0.949120000000     0.721290000000     0.499850000000     0.0276275  
C109     C      0.954800000000     0.224020000000     0.490380000000     0.0412897  
C110     C      0.043900000000     0.222280000000     0.509450000000     0.0503351  
C111     C      0.954780000000     0.277780000000     0.495520000000     0.0377564  
C112     C      0.045030000000     0.276460000000     0.511090000000     0.029739   
C113     C      0.774590000000     0.969170000000     0.521860000000     0.0383958  
C114     C      0.776330000000     0.043560000000     0.469480000000     0.0464     
C115     C      0.720940000000     0.970850000000     0.522420000000     0.0345917  
C116     C      0.722340000000     0.047400000000     0.472200000000     0.0293411  
C117     C      0.221180000000     0.970080000000     0.458590000000     0.0389293  
C118     C      0.218700000000     0.023880000000     0.531810000000     0.0450472  
C119     C      0.275000000000     0.969960000000     0.460590000000     0.0337382  
C120     C      0.272800000000     0.022990000000     0.535230000000     0.0316224  
C121     C      0.953000000000     0.716410000000     0.983060000000     0.0416147  
C122     C      0.043120000000     0.715610000000     0.996190000000     0.0505014  
C123     C      0.953110000000     0.770260000000     0.986390000000     0.0370874  
C124     C      0.044140000000     0.769880000000     0.996450000000     0.029077   
C125     C      0.993180000000     0.269030000000     0.945850000000     0.0409437  
C126     C      0.985560000000     0.270300000000     0.036700000000     0.047027   
C127     C      0.989490000000     0.215140000000     0.946440000000     0.0397804  
C128     C      0.985370000000     0.216110000000     0.038000000000     0.0357514  
C129     C      0.769090000000     0.993860000000     0.947520000000     0.0377803  
C130     C      0.771210000000     0.979090000000     0.037440000000     0.0475221  
C131     C      0.715360000000     0.988620000000     0.948010000000     0.0363011  
C132     C      0.717040000000     0.977450000000     0.038960000000     0.0284021  
C133     C      0.267430000000     0.985280000000     0.035650000000     0.0407803  
C134     C      0.269900000000     0.005570000000     0.946810000000     0.0483738  
C135     C      0.213700000000     0.990120000000     0.035200000000     0.0405393  
C136     C      0.215710000000     0.006990000000     0.945170000000     0.0305182  
C137     C      0.991810000000     0.949720000000     0.713330000000     0.0397193  
C138     C      0.001130000000     0.040400000000     0.713520000000     0.0486957  
C139     C      0.993950000000     0.949450000000     0.767230000000     0.0387964  
C140     C      0.999240000000     0.041000000000     0.767690000000     0.0353602  
C141     C      0.985320000000     0.950790000000     0.217330000000     0.0394122  
C142     C      0.000890000000     0.040500000000     0.213220000000     0.0474208  
C143     C      0.989000000000     0.952820000000     0.271170000000     0.0367189  
C144     C      0.001400000000     0.043540000000     0.267390000000     0.0291926  
H1       H      0.446940000000     0.437700000000     0.699450000000     0.0599116  
H2       H      0.447380000000     0.432650000000     0.791630000000     0.056508   
H3       H      0.549680000000     0.561120000000     0.799810000000     0.0621073  
H4       H      0.587200000000     0.666240000000     0.726890000000     0.177109   
H5       H      0.554780000000     0.438680000000     0.202210000000     0.0663027  
H6       H      0.558250000000     0.442040000000     0.294270000000     0.0612344  
H7       H      0.419040000000     0.529650000000     0.298010000000     0.0635147  
H8       H      0.307440000000     0.537910000000     0.223370000000     0.172113   
H9       H      0.443140000000     0.699530000000     0.446840000000     0.0595155  
H10      H      0.439070000000     0.791660000000     0.447360000000     0.0509497  
H11      H      0.577610000000     0.798730000000     0.535800000000     0.0562713  
H12      H      0.666110000000     0.750610000000     0.504060000000     0.162345   
H13      H      0.555630000000     0.295810000000     0.437070000000     0.0562314  
H14      H      0.551180000000     0.203570000000     0.431780000000     0.0618368  
H15      H      0.456350000000     0.199110000000     0.566160000000     0.0747848  
H16      H      0.435630000000     0.272250000000     0.676200000000     0.174946   
H17      H      0.545800000000     0.690760000000     0.940250000000     0.0528788  
H18      H      0.544440000000     0.782840000000     0.936230000000     0.0504688  
H19      H      0.437330000000     0.788350000000     0.060840000000     0.0642748  
H20      H      0.394810000000     0.713740000000     0.162690000000     0.177444   
H21      H      0.439780000000     0.285340000000     0.942920000000     0.05935    
H22      H      0.435800000000     0.193210000000     0.942770000000     0.0528629  
H23      H      0.565640000000     0.185920000000     0.043450000000     0.0593723  
H24      H      0.656550000000     0.233090000000     0.031740000000     0.162466   
H25      H      0.539590000000     0.927320000000     0.694970000000     0.0515563  
H26      H      0.537200000000     0.922340000000     0.787320000000     0.0491211  
H27      H      0.456140000000     0.065450000000     0.794120000000     0.0570862  
H28      H      0.495540000000     0.152630000000     0.748660000000     0.161205   
H29      H      0.433150000000     0.942740000000     0.293280000000     0.0510679  
H30      H      0.429950000000     0.940090000000     0.200870000000     0.0506737  
H31      H      0.561550000000     0.038240000000     0.192230000000     0.0720076  
H32      H      0.665930000000     0.076150000000     0.265080000000     0.177519   
H33      H      0.706530000000     0.494220000000     0.571650000000     0.0539539  
H34      H      0.799500000000     0.490800000000     0.570690000000     0.0520245  
H35      H      0.799900000000     0.513220000000     0.407610000000     0.0540583  
H36      H      0.749380000000     0.515620000000     0.322110000000     0.164481   
H37      H      0.301540000000     0.420960000000     0.484890000000     0.053035   
H38      H      0.208220000000     0.420070000000     0.478000000000     0.0605511  
H39      H      0.203710000000     0.581350000000     0.510530000000     0.0606253  
H40      H      0.284550000000     0.679720000000     0.555600000000     0.171404   
H41      H      0.700050000000     0.534120000000     0.939120000000     0.0517378  
H42      H      0.791930000000     0.533530000000     0.936080000000     0.0498938  
H43      H      0.798010000000     0.448940000000     0.077060000000     0.0592136  
H44      H      0.749690000000     0.481430000000     0.164520000000     0.163634   
H45      H      0.293740000000     0.540850000000     0.048250000000     0.0624164  
H46      H      0.202130000000     0.543240000000     0.048960000000     0.0540412  
H47      H      0.195970000000     0.417090000000     0.943680000000     0.0691654  
H48      H      0.271960000000     0.322930000000     0.888790000000     0.175005   
H49      H      0.919680000000     0.492810000000     0.789900000000     0.0465303  
H50      H      0.921620000000     0.490140000000     0.696440000000     0.0498041  
H51      H      0.083340000000     0.520010000000     0.697900000000     0.0635783  
H52      H      0.179790000000     0.558550000000     0.785090000000     0.174465   
H53      H      0.018770000000     0.419340000000     0.196870000000     0.0498856  
H54      H      0.024270000000     0.418680000000     0.290240000000     0.0513133  
H55      H      0.998170000000     0.581050000000     0.293580000000     0.0523693  
H56      H      0.999410000000     0.667320000000     0.244690000000     0.162413   
H57      H      0.077000000000     0.700840000000     0.488040000000     0.0478038  
H58      H      0.077080000000     0.794100000000     0.481310000000     0.047883   
H59      H      0.913980000000     0.796480000000     0.502530000000     0.0506258  
H60      H      0.827800000000     0.746870000000     0.503750000000     0.163552   
H61      H      0.918740000000     0.298370000000     0.489620000000     0.0473279  
H62      H      0.918510000000     0.204810000000     0.482050000000     0.0514439  
H63      H      0.079490000000     0.201100000000     0.515700000000     0.0538428  
H64      H      0.165120000000     0.249370000000     0.528320000000     0.165735   
H65      H      0.701240000000     0.940170000000     0.543100000000     0.0521524  
H66      H      0.793440000000     0.937950000000     0.542520000000     0.0502429  
H67      H      0.797560000000     0.073350000000     0.449110000000     0.0534985  
H68      H      0.752070000000     0.150780000000     0.408460000000     0.164751   
H69      H      0.295020000000     0.948440000000     0.430720000000     0.0504714  
H70      H      0.202620000000     0.948340000000     0.427960000000     0.0501107  
H71      H      0.197260000000     0.045270000000     0.560700000000     0.0657839  
H72      H      0.272280000000     0.082540000000     0.663940000000     0.18144    
H73      H      0.916530000000     0.790360000000     0.982410000000     0.0479524  
H74      H      0.916290000000     0.696900000000     0.977870000000     0.0503024  
H75      H      0.079120000000     0.694720000000     0.000780000000     0.0552938  
H76      H      0.165140000000     0.743600000000     0.002620000000     0.164683   
H77      H      0.991120000000     0.194680000000     0.909850000000     0.0561615  
H78      H      0.996440000000     0.288440000000     0.908840000000     0.050494   
H79      H      0.983560000000     0.291280000000     0.072920000000     0.0618911  
H80      H      0.946380000000     0.207210000000     0.173480000000     0.165964   
H81      H      0.694700000000     0.992630000000     0.911740000000     0.0452396  
H82      H      0.788130000000     0.000390000000     0.910760000000     0.049159   
H83      H      0.792570000000     0.974600000000     0.073200000000     0.0526693  
H84      H      0.744450000000     0.968580000000     0.160000000000     0.165186   
H85      H      0.192890000000     0.983720000000     0.071050000000     0.0513934  
H86      H      0.286300000000     0.976580000000     0.072040000000     0.0498389  
H87      H      0.291400000000     0.012520000000     0.911540000000     0.0523433  
H88      H      0.243280000000     0.021940000000     0.825420000000     0.164791   
H89      H      0.991260000000     0.912540000000     0.786980000000     0.0486885  
H90      H      0.988600000000     0.913050000000     0.693270000000     0.048984   
H91      H      0.004320000000     0.076760000000     0.692920000000     0.0619908  
H92      H      0.030060000000     0.178740000000     0.777220000000     0.172256   
H93      H      0.984230000000     0.917110000000     0.292670000000     0.0475236  
H94      H      0.978960000000     0.913580000000     0.199120000000     0.0516348  
H95      H      0.006160000000     0.075640000000     0.191030000000     0.060492   
H96      H      0.010310000000     0.163650000000     0.236890000000     0.162452   
N1       N      0.499450000000     0.496090000000     0.802570000000    -0.165485   
N2       N      0.498120000000     0.503050000000     0.694380000000    -0.157231   
N3       N      0.489690000000     0.487740000000     0.302790000000    -0.165486   
N4       N      0.484410000000     0.482420000000     0.195080000000    -0.157536   
N5       N      0.507410000000     0.802020000000     0.492900000000    -0.166629   
N6       N      0.513310000000     0.694020000000     0.491170000000    -0.156916   
N7       N      0.502120000000     0.194650000000     0.497860000000    -0.163244   
N8       N      0.508340000000     0.302380000000     0.505140000000    -0.159244   
N9       N      0.490200000000     0.792440000000     0.998020000000    -0.165722   
N10      N      0.492540000000     0.684240000000     0.003850000000    -0.158266   
N11      N      0.500070000000     0.182760000000     0.993870000000    -0.166853   
N12      N      0.505610000000     0.290790000000     0.993520000000    -0.15787    
N13      N      0.495350000000     0.993060000000     0.797400000000    -0.167965   
N14      N      0.499570000000     0.000020000000     0.689820000000    -0.158804   
N15      N      0.495160000000     0.989750000000     0.189810000000    -0.166283   
N16      N      0.499990000000     0.992030000000     0.297810000000    -0.159487   
N17      N      0.806240000000     0.501190000000     0.488780000000    -0.165792   
N18      N      0.698750000000     0.502670000000     0.489660000000    -0.158381   
N19      N      0.199500000000     0.500790000000     0.493770000000    -0.165307   
N20      N      0.306830000000     0.502350000000     0.499150000000    -0.160615   
N21      N      0.801870000000     0.490120000000     0.005980000000    -0.165511   
N22      N      0.693680000000     0.492040000000     0.010570000000    -0.157445   
N23      N      0.192240000000     0.480660000000     0.995640000000    -0.165443   
N24      N      0.300480000000     0.477220000000     0.994820000000    -0.157435   
N25      N      0.002900000000     0.504370000000     0.690620000000    -0.164788   
N26      N      0.001090000000     0.504420000000     0.798320000000    -0.160045   
N27      N      0.011130000000     0.499900000000     0.298510000000    -0.165517   
N28      N      0.007610000000     0.501160000000     0.190700000000    -0.159503   
N29      N      0.995380000000     0.801720000000     0.491380000000    -0.167855   
N30      N      0.994920000000     0.694380000000     0.496290000000    -0.160622   
N31      N      0.999260000000     0.196460000000     0.497880000000    -0.165856   
N32      N      0.999960000000     0.303880000000     0.503760000000    -0.160167   
N33      N      0.802170000000     0.004780000000     0.494410000000    -0.167205   
N34      N      0.694370000000     0.008770000000     0.496500000000    -0.158544   
N35      N      0.193070000000     0.997360000000     0.493940000000    -0.166008   
N36      N      0.301320000000     0.996900000000     0.498040000000    -0.15901    
N37      N      0.997840000000     0.689210000000     0.989020000000    -0.165115   
N38      N      0.998480000000     0.796960000000     0.991680000000    -0.159238   
N39      N      0.990510000000     0.296430000000     0.990940000000    -0.165222   
N40      N      0.987480000000     0.188830000000     0.992300000000    -0.159903   
N41      N      0.796860000000     0.988250000000     0.992100000000    -0.165518   
N42      N      0.689390000000     0.982250000000     0.993640000000    -0.160532   
N43      N      0.295390000000     0.993780000000     0.991630000000    -0.166237   
N44      N      0.187920000000     0.999210000000     0.989950000000    -0.158375   
N45      N      0.996400000000     0.995100000000     0.686750000000    -0.166518   
N46      N      0.995990000000     0.994850000000     0.794320000000    -0.160249   
N47      N      0.992440000000     0.994450000000     0.188520000000    -0.165392   
N48      N      0.995670000000     0.999030000000     0.296150000000    -0.15984    
O1       O      0.992410000000     0.992960000000     0.991080000000    -0.368846   
O2       O      0.968380000000     0.956390000000     0.111900000000    -0.286275   
O3       O      0.110590000000     0.022010000000     0.026150000000    -0.281824   
O4       O      0.030680000000     0.875340000000     0.966720000000    -0.278218   
O5       O      0.016340000000     0.027140000000     0.110290000000    -0.285065   
O6       O      0.960390000000     0.872950000000     0.015700000000    -0.28898    
O7       O      0.111210000000     0.972200000000     0.956250000000    -0.271729   
O8       O      0.967050000000     0.025490000000     0.871670000000    -0.282447   
O9       O      0.018880000000     0.112040000000     0.021920000000    -0.275935   
O10      O      0.019620000000     0.958080000000     0.871150000000    -0.281929   
O11      O      0.960180000000     0.111610000000     0.959450000000    -0.279885   
O12      O      0.873050000000     0.015890000000     0.956130000000    -0.287474   
O13      O      0.875200000000     0.966080000000     0.026080000000    -0.291057   
O14      O      0.997300000000     0.998870000000     0.491300000000    -0.370925   
O15      O      0.971860000000     0.034270000000     0.373660000000    -0.277632   
O16      O      0.116190000000     0.970850000000     0.458400000000    -0.291092   
O17      O      0.032760000000     0.117770000000     0.519920000000    -0.290632   
O18      O      0.021020000000     0.963780000000     0.372980000000    -0.288973   
O19      O      0.964900000000     0.120510000000     0.468140000000    -0.286766   
O20      O      0.114870000000     0.024280000000     0.525260000000    -0.292252   
O21      O      0.972250000000     0.960530000000     0.609040000000    -0.292866   
O22      O      0.031850000000     0.878550000000     0.466840000000    -0.294661   
O23      O      0.021000000000     0.031110000000     0.610070000000    -0.290562   
O24      O      0.960430000000     0.879430000000     0.513760000000    -0.296752   
O25      O      0.878950000000     0.971860000000     0.523290000000    -0.297188   
O26      O      0.879880000000     0.031370000000     0.461770000000    -0.295376   
O27      O      0.997220000000     0.492720000000     0.994250000000    -0.369578   
O28      O      0.015070000000     0.373250000000     0.953930000000    -0.287938   
O29      O      0.980160000000     0.462450000000     0.116400000000    -0.290494   
O30      O      0.116600000000     0.518350000000     0.021780000000    -0.292438   
O31      O      0.972670000000     0.374280000000     0.028410000000    -0.292801   
O32      O      0.113270000000     0.453480000000     0.966070000000    -0.285845   
O33      O      0.028220000000     0.533020000000     0.110630000000    -0.277932   
O34      O      0.960500000000     0.611430000000     0.968190000000    -0.288001   
O35      O      0.881420000000     0.463020000000     0.035300000000    -0.287226   
O36      O      0.033890000000     0.612090000000     0.012280000000    -0.284806   
O37      O      0.877320000000     0.517110000000     0.968970000000    -0.296536   
O38      O      0.962390000000     0.523120000000     0.875590000000    -0.28965    
O39      O      0.031520000000     0.472540000000     0.874610000000    -0.279627   
O40      O      0.002940000000     0.499090000000     0.494500000000    -0.368853   
O41      O      0.965230000000     0.382110000000     0.526240000000    -0.287186   
O42      O      0.031940000000     0.462520000000     0.376430000000    -0.288461   
O43      O      0.884490000000     0.521490000000     0.452540000000    -0.28527    
O44      O      0.033120000000     0.379420000000     0.473800000000    -0.281892   
O45      O      0.882580000000     0.478250000000     0.526270000000    -0.295531   
O46      O      0.984390000000     0.533940000000     0.375370000000    -0.29248    
O47      O      0.032200000000     0.618770000000     0.521780000000    -0.290712   
O48      O      0.122730000000     0.464870000000     0.467930000000    -0.283385   
O49      O      0.965070000000     0.616230000000     0.468640000000    -0.280663   
O50      O      0.121800000000     0.533810000000     0.518600000000    -0.293319   
O51      O      0.037730000000     0.528640000000     0.612760000000    -0.284492   
O52      O      0.969500000000     0.476710000000     0.613730000000    -0.289944   
O53      O      0.492430000000     0.987390000000     0.993460000000    -0.370188   
O54      O      0.371300000000     0.964740000000     0.026750000000    -0.292041   
O55      O      0.463540000000     0.106860000000     0.966560000000    -0.295422   
O56      O      0.524020000000     0.017220000000     0.111090000000    -0.289633   
O57      O      0.374100000000     0.017120000000     0.959070000000    -0.29282    
O58      O      0.461040000000     0.959700000000     0.113740000000    -0.293388   
O59      O      0.529030000000     0.103860000000     0.021510000000    -0.294941   
O60      O      0.612040000000     0.957940000000     0.958320000000    -0.290295   
O61      O      0.466820000000     0.022550000000     0.875610000000    -0.298052   
O62      O      0.612540000000     0.009890000000     0.026280000000    -0.281945   
O63      O      0.519820000000     0.955570000000     0.873740000000    -0.297776   
O64      O      0.520810000000     0.868810000000     0.965190000000    -0.291903   
O65      O      0.459210000000     0.871050000000     0.024860000000    -0.290136   
O66      O      0.498240000000     0.998120000000     0.493810000000    -0.372827   
O67      O      0.380310000000     0.028610000000     0.523640000000    -0.279372   
O68      O      0.467980000000     0.964070000000     0.375930000000    -0.294598   
O69      O      0.526490000000     0.117710000000     0.461430000000    -0.282268   
O70      O      0.378400000000     0.965570000000     0.466530000000    -0.294172   
O71      O      0.470500000000     0.116900000000     0.525870000000    -0.282214   
O72      O      0.526450000000     0.025870000000     0.375470000000    -0.28129    
O73      O      0.617910000000     0.975010000000     0.525770000000    -0.296152   
O74      O      0.469960000000     0.878040000000     0.467030000000    -0.294472   
O75      O      0.615620000000     0.032200000000     0.462810000000    -0.27477    
O76      O      0.535510000000     0.880810000000     0.521910000000    -0.295672   
O77      O      0.529380000000     0.968520000000     0.612530000000    -0.29512    
O78      O      0.468690000000     0.028230000000     0.611730000000    -0.276181   
O79      O      0.497090000000     0.487240000000     0.998800000000    -0.371677   
O80      O      0.376430000000     0.511910000000     0.024810000000    -0.284879   
O81      O      0.470550000000     0.460340000000     0.878240000000    -0.289684   
O82      O      0.526830000000     0.607680000000     0.974330000000    -0.293005   
O83      O      0.380610000000     0.451490000000     0.965310000000    -0.278994   
O84      O      0.461560000000     0.604540000000     0.028680000000    -0.278367   
O85      O      0.529430000000     0.522300000000     0.881900000000    -0.293183   
O86      O      0.614740000000     0.460430000000     0.036680000000    -0.272815   
O87      O      0.474070000000     0.368050000000     0.963250000000    -0.288473   
O88      O      0.616850000000     0.519560000000     0.975360000000    -0.292479   
O89      O      0.529400000000     0.369290000000     0.027780000000    -0.27814    
O90      O      0.519540000000     0.454390000000     0.118640000000    -0.282421   
O91      O      0.459730000000     0.514880000000     0.116210000000    -0.274323   
O92      O      0.502860000000     0.498230000000     0.497690000000    -0.372618   
O93      O      0.384620000000     0.536490000000     0.475880000000    -0.28128    
O94      O      0.475580000000     0.380860000000     0.530130000000    -0.282875   
O95      O      0.526570000000     0.464110000000     0.379420000000    -0.289618   
O96      O      0.383050000000     0.464320000000     0.521890000000    -0.285477   
O97      O      0.464530000000     0.522970000000     0.380140000000    -0.290046   
O98      O      0.537780000000     0.379550000000     0.471980000000    -0.291132   
O99      O      0.622900000000     0.523450000000     0.529520000000    -0.279286   
O100     O      0.467960000000     0.472010000000     0.616510000000    -0.281749   
O101     O      0.620800000000     0.475370000000     0.458760000000    -0.280443   
O102     O      0.531730000000     0.528310000000     0.616070000000    -0.277762   
O103     O      0.538010000000     0.615750000000     0.525620000000    -0.270032   
O104     O      0.479650000000     0.616840000000     0.463540000000    -0.286361   
O105     O      0.516070000000     0.623920000000     0.656820000000    -0.138969   
O106     O      0.570440000000     0.636860000000     0.744810000000    -0.269704   
O107     O      0.610110000000     0.577940000000     0.667770000000    -0.138808   
O108     O      0.366140000000     0.480350000000     0.152260000000    -0.14971    
O109     O      0.339180000000     0.526800000000     0.241620000000    -0.266603   
O110     O      0.389880000000     0.581440000000     0.167910000000    -0.139926   
O111     O      0.632530000000     0.651700000000     0.494580000000    -0.14094    
O112     O      0.657070000000     0.742200000000     0.540300000000    -0.258152   
O113     O      0.603840000000     0.669700000000     0.593690000000    -0.127907   
O114     O      0.402430000000     0.330420000000     0.590270000000    -0.145028   
O115     O      0.448970000000     0.254140000000     0.645240000000    -0.256736   
O116     O      0.500730000000     0.342440000000     0.625370000000    -0.153058   
O117     O      0.471230000000     0.647200000000     0.124580000000    -0.138475   
O118     O      0.411770000000     0.732340000000     0.133850000000    -0.267374   
O119     O      0.379250000000     0.653050000000     0.073650000000    -0.14194    
O120     O      0.579960000000     0.317150000000     0.105830000000    -0.125219   
O121     O      0.640550000000     0.242200000000     0.065300000000    -0.252154   
O122     O      0.625830000000     0.330920000000     0.012430000000    -0.14486    
O123     O      0.403970000000     0.098220000000     0.664500000000    -0.126904   
O124     O      0.459000000000     0.146060000000     0.739420000000    -0.257673   
O125     O      0.505240000000     0.120010000000     0.649660000000    -0.148321   
O126     O      0.621500000000     0.007670000000     0.336050000000    -0.14186    
O127     O      0.636200000000     0.060070000000     0.247160000000    -0.259496   
O128     O      0.577330000000     0.102410000000     0.322750000000    -0.138127   
O129     O      0.645990000000     0.562590000000     0.392600000000    -0.136293   
O130     O      0.734800000000     0.545700000000     0.340770000000    -0.253438   
O131     O      0.669230000000     0.465870000000     0.360360000000    -0.150546   
O132     O      0.333520000000     0.634240000000     0.470140000000    -0.152723   
O133     O      0.265240000000     0.647390000000     0.548810000000    -0.266384   
O134     O      0.355170000000     0.597150000000     0.565880000000    -0.151018   
O135     O      0.667510000000     0.392350000000     0.103340000000    -0.120668   
O136     O      0.740860000000     0.445220000000     0.155790000000    -0.255935   
O137     O      0.651380000000     0.492260000000     0.130290000000    -0.149595   
O138     O      0.338590000000     0.355550000000     0.967850000000    -0.150547   
O139     O      0.253210000000     0.350000000000     0.908280000000    -0.263311   
O140     O      0.331660000000     0.413090000000     0.880020000000    -0.148027   
O141     O      0.131550000000     0.470410000000     0.825970000000    -0.144767   
O142     O      0.147860000000     0.554030000000     0.764500000000    -0.26353    
O143     O      0.095450000000     0.564760000000     0.854250000000    -0.156584   
O144     O      0.944200000000     0.599560000000     0.143180000000    -0.145434   
O145     O      0.967970000000     0.650220000000     0.231140000000    -0.256505   
O146     O      0.042810000000     0.629720000000     0.160320000000    -0.148418   
O147     O      0.895960000000     0.643750000000     0.554670000000    -0.145817   
O148     O      0.845530000000     0.732760000000     0.534600000000    -0.256957   
O149     O      0.866550000000     0.665290000000     0.456700000000    -0.146607   
O150     O      0.094130000000     0.355230000000     0.568040000000    -0.144817   
O151     O      0.144240000000     0.264540000000     0.556580000000    -0.254733   
O152     O      0.132620000000     0.329270000000     0.474400000000    -0.153196   
O153     O      0.651000000000     0.127450000000     0.491840000000    -0.140345   
O154     O      0.740330000000     0.152390000000     0.444850000000    -0.261236   
O155     O      0.667390000000     0.097740000000     0.392800000000    -0.142866   
O156     O      0.330050000000     0.106430000000     0.574940000000    -0.135723   
O157     O      0.253670000000     0.066680000000     0.634500000000    -0.265182   
O158     O      0.340750000000     0.011500000000     0.619310000000    -0.142813   
O159     O      0.096640000000     0.847020000000     0.052520000000    -0.146401   
O160     O      0.147070000000     0.757900000000     0.033180000000    -0.256553   
O161     O      0.127860000000     0.825580000000     0.955040000000    -0.146728   
O162     O      0.033680000000     0.163510000000     0.119730000000    -0.146323   
O163     O      0.954040000000     0.228110000000     0.142350000000    -0.265001   
O164     O      0.935440000000     0.137330000000     0.094070000000    -0.15899    
O165     O      0.640060000000     0.921240000000     0.091570000000    -0.144306   
O166     O      0.730160000000     0.938610000000     0.140960000000    -0.256804   
O167     O      0.663030000000     0.017830000000     0.124280000000    -0.144703   
O168     O      0.140780000000     0.068980000000     0.897550000000    -0.133511   
O169     O      0.229330000000     0.051390000000     0.845510000000    -0.255036   
O170     O      0.159380000000     0.973900000000     0.858130000000    -0.143453   
O171     O      0.045810000000     0.097690000000     0.848290000000    -0.142216   
O172     O      0.029170000000     0.146050000000     0.757340000000    -0.262209   
O173     O      0.948020000000     0.121520000000     0.819220000000    -0.152356   
O174     O      0.058830000000     0.097630000000     0.342410000000    -0.144902   
O175     O      0.040430000000     0.145110000000     0.251490000000    -0.252018   
O176     O      0.962080000000     0.130210000000     0.319990000000    -0.152942   
S1       S      0.555950000000     0.594680000000     0.697520000000     0.290471   
S2       S      0.384730000000     0.523920000000     0.195370000000     0.286586   
S3       S      0.611600000000     0.695970000000     0.535900000000     0.286509   
S4       S      0.458240000000     0.301060000000     0.601200000000     0.287077   
S5       S      0.430900000000     0.685590000000     0.092950000000     0.291203   
S6       S      0.597300000000     0.288640000000     0.051190000000     0.289714   
S7       S      0.461390000000     0.101220000000     0.692400000000     0.287504   
S8       S      0.593350000000     0.047300000000     0.294330000000     0.291494   
S9       S      0.693290000000     0.520350000000     0.383900000000     0.286053   
S10      S      0.308990000000     0.607080000000     0.522660000000     0.283803   
S11      S      0.694840000000     0.449750000000     0.110120000000     0.286381   
S12      S      0.299610000000     0.389810000000     0.930330000000     0.288134   
S13      S      0.106000000000     0.525220000000     0.804980000000     0.284469   
S14      S      0.989600000000     0.606950000000     0.187690000000     0.283053   
S15      S      0.888860000000     0.690280000000     0.511270000000     0.283892   
S16      S      0.104470000000     0.306870000000     0.527370000000     0.284006   
S17      S      0.694650000000     0.106400000000     0.450000000000     0.286572   
S18      S      0.300060000000     0.052280000000     0.591330000000     0.290897   
S19      S      0.104350000000     0.800580000000     0.009110000000     0.285009   
S20      S      0.977280000000     0.185550000000     0.099080000000     0.279901   
S21      S      0.687090000000     0.963960000000     0.099390000000     0.28382    
S22      S      0.185840000000     0.025090000000     0.886050000000     0.28446    
S23      S      0.005460000000     0.102030000000     0.798850000000     0.284345   
S24      S      0.015520000000     0.104560000000     0.295800000000     0.283564   
Zn1      Zn     0.950520000000     0.948270000000     0.035240000000     0.457687   
Zn2      Zn     0.033890000000     0.037030000000     0.035750000000     0.472566   
Zn3      Zn     0.036890000000     0.950690000000     0.947390000000     0.470191   
Zn4      Zn     0.948860000000     0.035250000000     0.946130000000     0.466505   
Zn5      Zn     0.955110000000     0.045110000000     0.449450000000     0.464997   
Zn6      Zn     0.040410000000     0.954250000000     0.448370000000     0.457994   
Zn7      Zn     0.040100000000     0.041790000000     0.535290000000     0.465135   
Zn8      Zn     0.953700000000     0.954070000000     0.533180000000     0.460014   
Zn9      Zn     0.037630000000     0.448680000000     0.948400000000     0.464075   
Zn10     Zn     0.958920000000     0.449450000000     0.042500000000     0.460221   
Zn11     Zn     0.042520000000     0.537940000000     0.033530000000     0.46874    
Zn12     Zn     0.950560000000     0.534730000000     0.952620000000     0.460203   
Zn13     Zn     0.956530000000     0.459730000000     0.538820000000     0.462305   
Zn14     Zn     0.046410000000     0.452820000000     0.453760000000     0.46231    
Zn15     Zn     0.960370000000     0.541090000000     0.448960000000     0.464095   
Zn16     Zn     0.047300000000     0.543700000000     0.535940000000     0.464918   
Zn17     Zn     0.446830000000     0.946950000000     0.038250000000     0.460163   
Zn18     Zn     0.450090000000     0.032040000000     0.950340000000     0.461909   
Zn19     Zn     0.538110000000     0.028380000000     0.036420000000     0.472146   
Zn20     Zn     0.535130000000     0.943630000000     0.948930000000     0.458964   
Zn21     Zn     0.455390000000     0.041720000000     0.536960000000     0.479539   
Zn22     Zn     0.454310000000     0.952940000000     0.452090000000     0.458281   
Zn23     Zn     0.539920000000     0.042170000000     0.449450000000     0.478791   
Zn24     Zn     0.543650000000     0.956530000000     0.537150000000     0.464909   
Zn25     Zn     0.450270000000     0.528710000000     0.040520000000     0.477715   
Zn26     Zn     0.456870000000     0.443080000000     0.952710000000     0.46935    
Zn27     Zn     0.541630000000     0.532670000000     0.958490000000     0.459649   
Zn28     Zn     0.539020000000     0.444320000000     0.044190000000     0.477625   
Zn29     Zn     0.459300000000     0.542540000000     0.455570000000     0.470719   
Zn30     Zn     0.458370000000     0.455260000000     0.540360000000     0.470887   
Zn31     Zn     0.545950000000     0.455320000000     0.453530000000     0.46891    
Zn32     Zn     0.547620000000     0.539860000000     0.541280000000     0.479004   


