data_structure

_audit_creation_method RASPA-1.0
_audit_creation_date 2023-5-19
_audit_author_name 'Poobodin Mano'

_cell_length_a    25.9499
_cell_length_b    25.8555
_cell_length_c    25.8005
_cell_angle_alpha 90
_cell_angle_beta  90
_cell_angle_gamma 90
_cell_volume      17310.8

_symmetry_cell_setting          triclinic
_symmetry_space_group_name_Hall 'P 1'
_symmetry_space_group_name_H-M  'P 1'
_symmetry_Int_Tables_number     1

_symmetry_equiv_pos_as_xyz 'x,y,z'

loop_
_atom_site_label
_atom_site_type_symbol
_atom_site_fract_x
_atom_site_fract_y
_atom_site_fract_z
_atom_site_charge
C1       C      0.994420000000     0.003420000000     0.144640000000     0.369622   
C2       C      0.138930000000     0.003660000000     0.992160000000     0.372329   
C3       C      0.998490000000     0.855830000000     0.006490000000     0.362922   
C4       C      0.992500000000     0.001260000000     0.859090000000     0.362963   
C5       C      0.995220000000     0.144050000000     0.005940000000     0.364176   
C6       C      0.851970000000     0.996350000000     0.996620000000     0.366512   
C7       C      0.996030000000     0.004850000000     0.358700000000     0.363043   
C8       C      0.138510000000     0.998310000000     0.511820000000     0.373277   
C9       C      0.995180000000     0.145040000000     0.499600000000     0.362703   
C10      C      0.990410000000     0.003450000000     0.645000000000     0.37076    
C11      C      0.998080000000     0.858710000000     0.496790000000     0.365965   
C12      C      0.851600000000     0.996050000000     0.503620000000     0.373774   
C13      C      0.996460000000     0.357670000000     0.001540000000     0.367663   
C14      C      0.000490000000     0.500510000000     0.145880000000     0.366566   
C15      C      0.145270000000     0.494820000000     0.005130000000     0.374503   
C16      C      0.999860000000     0.642080000000     0.004990000000     0.367311   
C17      C      0.855890000000     0.500480000000     0.000780000000     0.365595   
C18      C      0.002560000000     0.501060000000     0.857540000000     0.363399   
C19      C      0.997410000000     0.358470000000     0.502480000000     0.371857   
C20      C      0.999550000000     0.502400000000     0.359380000000     0.370949   
C21      C      0.852860000000     0.504200000000     0.501040000000     0.366942   
C22      C      0.000060000000     0.645640000000     0.498070000000     0.373874   
C23      C      0.142430000000     0.502740000000     0.498860000000     0.366218   
C24      C      0.000770000000     0.500870000000     0.643450000000     0.367298   
C25      C      0.352320000000     0.998110000000     0.994000000000     0.366225   
C26      C      0.495120000000     0.994940000000     0.143150000000     0.364667   
C27      C      0.494850000000     0.852730000000     0.997610000000     0.366331   
C28      C      0.638610000000     0.989590000000     0.992330000000     0.372715   
C29      C      0.499150000000     0.139660000000     0.004550000000     0.365804   
C30      C      0.494650000000     0.001720000000     0.856500000000     0.369222   
C31      C      0.351680000000     0.001760000000     0.508170000000     0.36568    
C32      C      0.495810000000     0.994780000000     0.357130000000     0.371658   
C33      C      0.494000000000     0.143640000000     0.492020000000     0.367189   
C34      C      0.637710000000     0.000170000000     0.504600000000     0.364723   
C35      C      0.492200000000     0.857960000000     0.500960000000     0.367533   
C36      C      0.498400000000     0.005130000000     0.643340000000     0.376484   
C37      C      0.500300000000     0.638460000000     0.987060000000     0.371123   
C38      C      0.503870000000     0.501550000000     0.140360000000     0.368331   
C39      C      0.357870000000     0.495330000000     0.003120000000     0.364912   
C40      C      0.496910000000     0.353930000000     0.995360000000     0.370942   
C41      C      0.643410000000     0.497900000000     0.998150000000     0.373377   
C42      C      0.500210000000     0.492640000000     0.851730000000     0.365947   
C43      C      0.354690000000     0.504220000000     0.493410000000     0.37483    
C44      C      0.492670000000     0.357510000000     0.489120000000     0.375082   
C45      C      0.504870000000     0.505460000000     0.353690000000     0.373689   
C46      C      0.640350000000     0.504970000000     0.494620000000     0.37133    
C47      C      0.500650000000     0.492100000000     0.637990000000     0.370228   
C48      C      0.490450000000     0.644150000000     0.504610000000     0.372528   
C49      C      0.456560000000     0.499870000000     0.771200000000     0.0258921  
C50      C      0.545510000000     0.481070000000     0.772610000000    -0.0139272  
C51      C      0.456770000000     0.496680000000     0.717260000000     0.0361252  
C52      C      0.546830000000     0.480780000000     0.718130000000     0.150782   
C53      C      0.501280000000     0.458650000000     0.221460000000     0.0261157  
C54      C      0.511330000000     0.549330000000     0.218540000000    -0.0133827  
C55      C      0.504320000000     0.460020000000     0.275290000000     0.0371288  
C56      C      0.511480000000     0.551540000000     0.272950000000     0.151657   
C57      C      0.524830000000     0.777890000000     0.532270000000     0.0253768  
C58      C      0.452840000000     0.778600000000     0.476680000000    -0.0147842  
C59      C      0.522850000000     0.724130000000     0.534410000000     0.0322152  
C60      C      0.448510000000     0.724660000000     0.481060000000     0.148329   
C61      C      0.464660000000     0.224230000000     0.524680000000     0.0258459  
C62      C      0.517190000000     0.222380000000     0.450270000000    -0.0141254  
C63      C      0.463790000000     0.277930000000     0.522920000000     0.0332516  
C64      C      0.513860000000     0.276500000000     0.446130000000     0.150502   
C65      C      0.525040000000     0.771320000000     0.027980000000     0.025843   
C66      C      0.469870000000     0.774620000000     0.955660000000    -0.0140486  
C67      C      0.527160000000     0.717690000000     0.023700000000     0.0325922  
C68      C      0.474100000000     0.720740000000     0.949060000000     0.150296   
C69      C      0.535540000000     0.219470000000     0.976880000000     0.0267063  
C70      C      0.458790000000     0.219620000000     0.025480000000    -0.0138364  
C71      C      0.533470000000     0.273190000000     0.973170000000     0.0332798  
C72      C      0.454300000000     0.273440000000     0.018890000000     0.15006    
C73      C      0.486460000000     0.959600000000     0.775450000000     0.0273719  
C74      C      0.506200000000     0.048690000000     0.778420000000    -0.0129371  
C75      C      0.490400000000     0.960510000000     0.721720000000     0.0374364  
C76      C      0.507580000000     0.050710000000     0.724060000000     0.152572   
C77      C      0.451860000000     0.004630000000     0.223800000000     0.0266243  
C78      C      0.539980000000     0.982300000000     0.222370000000    -0.013606   
C79      C      0.452040000000     0.001680000000     0.277810000000     0.0364047  
C80      C      0.541320000000     0.981880000000     0.276840000000     0.151458   
C81      C      0.772440000000     0.461310000000     0.509960000000     0.0264762  
C82      C      0.774570000000     0.549590000000     0.486960000000    -0.0134045  
C83      C      0.718900000000     0.461450000000     0.505230000000     0.0359247  
C84      C      0.720440000000     0.550990000000     0.485010000000     0.150856   
C85      C      0.222320000000     0.459740000000     0.487300000000     0.0252371  
C86      C      0.221060000000     0.549260000000     0.505210000000    -0.0145764  
C87      C      0.275990000000     0.460400000000     0.487950000000     0.0365089  
C88      C      0.275170000000     0.550990000000     0.502970000000     0.149295   
C89      C      0.775530000000     0.491830000000     0.043990000000     0.025507   
C90      C      0.777510000000     0.509140000000     0.954210000000    -0.0143685  
C91      C      0.721810000000     0.493740000000     0.043170000000     0.0366179  
C92      C      0.723390000000     0.508030000000     0.952300000000     0.150885   
C93      C      0.277440000000     0.500230000000     0.959860000000     0.0261173  
C94      C      0.279530000000     0.487070000000     0.050310000000    -0.0138348  
C95      C      0.223860000000     0.497310000000     0.960590000000     0.036716   
C96      C      0.225290000000     0.487200000000     0.052000000000     0.151067   
C97      C      0.959270000000     0.513520000000     0.777350000000     0.0266896  
C98      C      0.046420000000     0.487630000000     0.777740000000    -0.0126614  
C99      C      0.958640000000     0.510610000000     0.723320000000     0.0368564  
C100     C      0.047240000000     0.487980000000     0.723160000000     0.151355   
C101     C      0.956940000000     0.490230000000     0.226080000000     0.0271111  
C102     C      0.044910000000     0.513450000000     0.225160000000    -0.012903   
C103     C      0.956660000000     0.493500000000     0.280010000000     0.0375688  
C104     C      0.045940000000     0.513610000000     0.279610000000     0.151842   
C105     C      0.955090000000     0.778200000000     0.504530000000     0.0273393  
C106     C      0.044080000000     0.780080000000     0.485710000000    -0.01201    
C107     C      0.955770000000     0.724350000000     0.502590000000     0.036791   
C108     C      0.045980000000     0.725710000000     0.487340000000     0.150412   
C109     C      0.951920000000     0.225860000000     0.492750000000     0.02645    
C110     C      0.041550000000     0.223670000000     0.507830000000    -0.0131157  
C111     C      0.952630000000     0.279750000000     0.496790000000     0.0370601  
C112     C      0.043280000000     0.277980000000     0.508910000000     0.152094   
C113     C      0.718580000000     0.034370000000     0.478140000000     0.0256359  
C114     C      0.716140000000     0.960750000000     0.531680000000    -0.0143906  
C115     C      0.772160000000     0.032100000000     0.477490000000     0.0323598  
C116     C      0.770080000000     0.955850000000     0.528410000000     0.149792   
C117     C      0.271700000000     0.034300000000     0.540300000000     0.0263885  
C118     C      0.272800000000     0.960290000000     0.487130000000    -0.0143485  
C119     C      0.217910000000     0.032210000000     0.541980000000     0.0339226  
C120     C      0.219110000000     0.955750000000     0.491450000000     0.150799   
C121     C      0.042560000000     0.775770000000     0.996380000000     0.0277497  
C122     C      0.954780000000     0.776160000000     0.019970000000    -0.0126121  
C123     C      0.042810000000     0.721770000000     0.998350000000     0.0376379  
C124     C      0.953690000000     0.721720000000     0.018780000000     0.151542   
C125     C      0.039420000000     0.224300000000     0.013570000000     0.0273185  
C126     C      0.950120000000     0.223410000000     0.996660000000    -0.0131265  
C127     C      0.039630000000     0.278170000000     0.009150000000     0.0364194  
C128     C      0.949250000000     0.277780000000     0.995160000000     0.151743   
C129     C      0.771460000000     0.027570000000     0.965140000000     0.0262784  
C130     C      0.773740000000     0.953380000000     0.017930000000    -0.0146271  
C131     C      0.717810000000     0.024680000000     0.963470000000     0.0331496  
C132     C      0.720000000000     0.947980000000     0.013570000000     0.149935   
C133     C      0.271650000000     0.966160000000     0.963240000000     0.0271286  
C134     C      0.273990000000     0.040060000000     0.016480000000    -0.0140959  
C135     C      0.217890000000     0.968770000000     0.962090000000     0.0342118  
C136     C      0.220260000000     0.045180000000     0.012630000000     0.1509     
C137     C      0.999410000000     0.958200000000     0.778000000000     0.026945   
C138     C      0.980870000000     0.047450000000     0.780290000000    -0.0133682  
C139     C      0.996260000000     0.958950000000     0.724060000000     0.0367505  
C140     C      0.979760000000     0.049180000000     0.725810000000     0.152285   
C141     C      0.039110000000     0.995920000000     0.277900000000     0.027709   
C142     C      0.950390000000     0.015610000000     0.279590000000    -0.0129258  
C143     C      0.038530000000     0.998070000000     0.223860000000     0.0376672  
C144     C      0.948660000000     0.014880000000     0.225080000000     0.151788   
H1       H      0.420760000000     0.503290000000     0.696870000000     0.0386034  
H2       H      0.420230000000     0.507470000000     0.790560000000     0.0426289  
H3       H      0.581010000000     0.473900000000     0.793690000000     0.0524196  
H4       H      0.595060000000     0.462490000000     0.654250000000     0.110254   
H5       H      0.625590000000     0.462170000000     0.715460000000     0.0947173  
H6       H      0.501260000000     0.423740000000     0.296260000000     0.0356425  
H7       H      0.497270000000     0.421300000000     0.202730000000     0.0438483  
H8       H      0.515050000000     0.585110000000     0.196840000000     0.0545469  
H9       H      0.525180000000     0.602440000000     0.336030000000     0.110759   
H10      H      0.522570000000     0.632010000000     0.274370000000     0.0957035  
H11      H      0.552570000000     0.704620000000     0.556610000000     0.0423048  
H12      H      0.555070000000     0.797180000000     0.553890000000     0.0444988  
H13      H      0.423580000000     0.799250000000     0.454860000000     0.0547303  
H14      H      0.392600000000     0.665150000000     0.473380000000     0.10992    
H15      H      0.377260000000     0.723630000000     0.442320000000     0.09316    
H16      H      0.443160000000     0.297680000000     0.553670000000     0.0436392  
H17      H      0.443940000000     0.205480000000     0.555980000000     0.0452038  
H18      H      0.537360000000     0.201210000000     0.420130000000     0.05607    
H19      H      0.520180000000     0.335710000000     0.389300000000     0.114582   
H20      H      0.549650000000     0.276750000000     0.373080000000     0.0961279  
H21      H      0.549490000000     0.697410000000     0.052850000000     0.0437179  
H22      H      0.546550000000     0.789460000000     0.059100000000     0.0430069  
H23      H      0.447990000000     0.796300000000     0.927150000000     0.0565341  
H24      H      0.465690000000     0.663670000000     0.890320000000     0.115082   
H25      H      0.434400000000     0.722610000000     0.878120000000     0.0959207  
H26      H      0.565070000000     0.292260000000     0.953360000000     0.043651   
H27      H      0.567760000000     0.199870000000     0.958670000000     0.0448867  
H28      H      0.427740000000     0.199280000000     0.044950000000     0.0552694  
H29      H      0.396630000000     0.331840000000     0.018390000000     0.11466    
H30      H      0.379780000000     0.274550000000     0.050770000000     0.0950066  
H31      H      0.483730000000     0.924720000000     0.700740000000     0.0392068  
H32      H      0.478300000000     0.922920000000     0.794140000000     0.0436623  
H33      H      0.513540000000     0.083900000000     0.800140000000     0.0551539  
H34      H      0.528260000000     0.099650000000     0.661300000000     0.111683   
H35      H      0.527380000000     0.129490000000     0.722840000000     0.0962542  
H36      H      0.416370000000     0.009800000000     0.298230000000     0.039642   
H37      H      0.415840000000     0.013610000000     0.204470000000     0.0443448  
H38      H      0.575140000000     0.973570000000     0.201320000000     0.0550307  
H39      H      0.588730000000     0.960590000000     0.340460000000     0.110727   
H40      H      0.619120000000     0.959510000000     0.279260000000     0.0953767  
H41      H      0.698340000000     0.425690000000     0.512860000000     0.0383996  
H42      H      0.791380000000     0.425190000000     0.519720000000     0.043492   
H43      H      0.795830000000     0.584790000000     0.478620000000     0.0542618  
H44      H      0.657700000000     0.598690000000     0.462510000000     0.109237   
H45      H      0.718620000000     0.629130000000     0.462750000000     0.0944865  
H46      H      0.296330000000     0.424300000000     0.481350000000     0.0374556  
H47      H      0.203050000000     0.423030000000     0.481090000000     0.0415328  
H48      H      0.200120000000     0.584800000000     0.512890000000     0.0510733  
H49      H      0.339060000000     0.600070000000     0.517590000000     0.104387   
H50      H      0.278090000000     0.630330000000     0.520270000000     0.091049   
H51      H      0.701170000000     0.487630000000     0.079260000000     0.038024   
H52      H      0.794570000000     0.485370000000     0.080850000000     0.0434538  
H53      H      0.798700000000     0.516170000000     0.918620000000     0.0537015  
H54      H      0.660060000000     0.523600000000     0.902490000000     0.109964   
H55      H      0.721280000000     0.524990000000     0.872680000000     0.0941927  
H56      H      0.203390000000     0.501540000000     0.924130000000     0.0382613  
H57      H      0.296370000000     0.505350000000     0.922720000000     0.0434016  
H58      H      0.300810000000     0.482000000000     0.086180000000     0.0540004  
H59      H      0.162050000000     0.472490000000     0.102080000000     0.110321   
H60      H      0.223130000000     0.473750000000     0.132260000000     0.0948108  
H61      H      0.923010000000     0.519760000000     0.703260000000     0.0377825  
H62      H      0.923820000000     0.523730000000     0.797150000000     0.0430524  
H63      H      0.081420000000     0.477510000000     0.798440000000     0.0542012  
H64      H      0.093870000000     0.468400000000     0.658480000000     0.109475   
H65      H      0.124600000000     0.464320000000     0.719470000000     0.0957242  
H66      H      0.920890000000     0.485500000000     0.300320000000     0.038749   
H67      H      0.921140000000     0.480930000000     0.206470000000     0.0440358  
H68      H      0.080130000000     0.522300000000     0.204240000000     0.0529472  
H69      H      0.093260000000     0.532960000000     0.343890000000     0.109657   
H70      H      0.123890000000     0.535340000000     0.282780000000     0.0952071  
H71      H      0.919910000000     0.703720000000     0.509140000000     0.0367045  
H72      H      0.918580000000     0.797380000000     0.511660000000     0.0400739  
H73      H      0.079380000000     0.801370000000     0.478290000000     0.0499176  
H74      H      0.095350000000     0.661720000000     0.473550000000     0.108436   
H75      H      0.125070000000     0.723150000000     0.470220000000     0.0919224  
H76      H      0.916570000000     0.300540000000     0.492220000000     0.0381319  
H77      H      0.915180000000     0.206830000000     0.486570000000     0.043182   
H78      H      0.077170000000     0.202330000000     0.513300000000     0.05484    
H79      H      0.092940000000     0.341020000000     0.526010000000     0.109963   
H80      H      0.122840000000     0.279720000000     0.523940000000     0.0954691  
H81      H      0.792020000000     0.062480000000     0.456470000000     0.0435461  
H82      H      0.700090000000     0.065460000000     0.456910000000     0.0446549  
H83      H      0.694830000000     0.931070000000     0.552310000000     0.0559523  
H84      H      0.827820000000     0.897800000000     0.535830000000     0.11535    
H85      H      0.769120000000     0.883960000000     0.566330000000     0.09518    
H86      H      0.198070000000     0.062640000000     0.562920000000     0.0433506  
H87      H      0.290850000000     0.065410000000     0.560870000000     0.0453334  
H88      H      0.293490000000     0.930160000000     0.466490000000     0.0555796  
H89      H      0.160150000000     0.898990000000     0.486420000000     0.112602   
H90      H      0.218640000000     0.882430000000     0.456220000000     0.093472   
H91      H      0.078560000000     0.701740000000     0.989710000000     0.0393212  
H92      H      0.078290000000     0.795520000000     0.987190000000     0.0441447  
H93      H      0.919540000000     0.796780000000     0.029360000000     0.0542452  
H94      H      0.906390000000     0.657220000000     0.036940000000     0.110872   
H95      H      0.875890000000     0.718170000000     0.041000000000     0.0956869  
H96      H      0.075930000000     0.298380000000     0.014320000000     0.0378289  
H97      H      0.075740000000     0.204760000000     0.020610000000     0.0403758  
H98      H      0.914290000000     0.202580000000     0.990570000000     0.05439    
H99      H      0.900940000000     0.341440000000     0.976580000000     0.11138    
H100     H      0.870050000000     0.280620000000     0.978540000000     0.0963208  
H101     H      0.697790000000     0.054960000000     0.942480000000     0.043908   
H102     H      0.790030000000     0.059120000000     0.944680000000     0.0446366  
H103     H      0.794980000000     0.923600000000     0.038500000000     0.0551834  
H104     H      0.662190000000     0.889980000000     0.018490000000     0.11435    
H105     H      0.720780000000     0.874830000000     0.049060000000     0.094465   
H106     H      0.197660000000     0.938520000000     0.941240000000     0.0440407  
H107     H      0.290260000000     0.934890000000     0.942410000000     0.0455236  
H108     H      0.295190000000     0.069910000000     0.037000000000     0.0557355  
H109     H      0.162170000000     0.102830000000     0.018120000000     0.114384   
H110     H      0.220960000000     0.118330000000     0.048180000000     0.095123   
H111     H      0.002920000000     0.922970000000     0.703430000000     0.0411856  
H112     H      0.007050000000     0.921530000000     0.796910000000     0.0458003  
H113     H      0.973720000000     0.082900000000     0.801650000000     0.0558911  
H114     H      0.958360000000     0.097750000000     0.662990000000     0.112286   
H115     H      0.959770000000     0.127910000000     0.724300000000     0.096912   
H116     H      0.074350000000     0.990950000000     0.203310000000     0.0401047  
H117     H      0.075500000000     0.988310000000     0.297130000000     0.0448947  
H118     H      0.915090000000     0.023480000000     0.300770000000     0.0549491  
H119     H      0.899960000000     0.032500000000     0.161320000000     0.111327   
H120     H      0.870060000000     0.034220000000     0.222770000000     0.0960771  
N1       N      0.500770000000     0.491440000000     0.798700000000    -0.159639   
N2       N      0.501860000000     0.489120000000     0.690820000000    -0.187139   
N3       N      0.591980000000     0.468570000000     0.694070000000    -0.21189    
N4       N      0.505330000000     0.503200000000     0.193280000000    -0.1595     
N5       N      0.507430000000     0.506220000000     0.300920000000    -0.18846    
N6       N      0.519380000000     0.598160000000     0.296290000000    -0.212161   
N7       N      0.490450000000     0.805010000000     0.502630000000    -0.159907   
N8       N      0.486250000000     0.697130000000     0.507300000000    -0.187281   
N9       N      0.404550000000     0.702130000000     0.462940000000    -0.21032    
N10      N      0.492310000000     0.196540000000     0.489120000000    -0.159529   
N11      N      0.489880000000     0.304500000000     0.485150000000    -0.186969   
N12      N      0.530580000000     0.298670000000     0.401210000000    -0.210595   
N13      N      0.495960000000     0.799750000000     0.994370000000    -0.159215   
N14      N      0.500700000000     0.691800000000     0.985480000000    -0.185482   
N15      N      0.455410000000     0.700010000000     0.904250000000    -0.211024   
N16      N      0.498480000000     0.192730000000     0.003370000000    -0.158956   
N17      N      0.493940000000     0.300680000000     0.995260000000    -0.185378   
N18      N      0.408460000000     0.295770000000     0.031840000000    -0.210285   
N19      N      0.495260000000     0.003450000000     0.803610000000    -0.159707   
N20      N      0.499300000000     0.005960000000     0.696120000000    -0.188679   
N21      N      0.521030000000     0.096120000000     0.700870000000    -0.212155   
N22      N      0.495640000000     0.994270000000     0.196240000000    -0.158233   
N23      N      0.496790000000     0.992210000000     0.304240000000    -0.187164   
N24      N      0.585870000000     0.967350000000     0.300740000000    -0.211958   
N25      N      0.800130000000     0.505090000000     0.499840000000    -0.159198   
N26      N      0.692960000000     0.506260000000     0.494410000000    -0.187521   
N27      N      0.697060000000     0.595750000000     0.469990000000    -0.21201    
N28      N      0.195090000000     0.503920000000     0.497020000000    -0.160563   
N29      N      0.302200000000     0.505840000000     0.494340000000    -0.188359   
N30      N      0.299270000000     0.596620000000     0.513460000000    -0.212548   
N31      N      0.803160000000     0.500340000000     0.999680000000    -0.159512   
N32      N      0.695930000000     0.500010000000     0.997430000000    -0.18783    
N33      N      0.699750000000     0.518740000000     0.906340000000    -0.212201   
N34      N      0.305150000000     0.494450000000     0.004570000000    -0.159037   
N35      N      0.197840000000     0.492700000000     0.006440000000    -0.187974   
N36      N      0.201650000000     0.478080000000     0.098260000000    -0.212267   
N37      N      0.002840000000     0.501070000000     0.804420000000    -0.157905   
N38      N      0.002650000000     0.499520000000     0.696350000000    -0.185884   
N39      N      0.091320000000     0.473330000000     0.698490000000    -0.211988   
N40      N      0.000800000000     0.501130000000     0.198870000000    -0.159024   
N41      N      0.001150000000     0.503450000000     0.306590000000    -0.186883   
N42      N      0.090460000000     0.527440000000     0.303970000000    -0.211933   
N43      N      0.999060000000     0.805840000000     0.495430000000    -0.159786   
N44      N      0.001130000000     0.698310000000     0.495930000000    -0.187417   
N45      N      0.091590000000     0.701720000000     0.477020000000    -0.212128   
N46      N      0.996190000000     0.198000000000     0.499380000000    -0.158339   
N47      N      0.998150000000     0.305680000000     0.503230000000    -0.187413   
N48      N      0.089150000000     0.301420000000     0.519470000000    -0.211986   
N49      N      0.690580000000     0.998950000000     0.505460000000    -0.159103   
N50      N      0.798470000000     0.993790000000     0.503250000000    -0.185925   
N51      N      0.791410000000     0.911040000000     0.546250000000    -0.210959   
N52      N      0.298940000000     0.999240000000     0.511600000000    -0.15844    
N53      N      0.191320000000     0.994560000000     0.515660000000    -0.186247   
N54      N      0.196990000000     0.910650000000     0.475410000000    -0.210216   
N55      N      0.998730000000     0.802800000000     0.007800000000    -0.157935   
N56      N      0.998320000000     0.694880000000     0.007560000000    -0.185966   
N57      N      0.909210000000     0.697170000000     0.032330000000    -0.211893   
N58      N      0.994890000000     0.197050000000     0.006130000000    -0.158887   
N59      N      0.994690000000     0.304830000000     0.001480000000    -0.186313   
N60      N      0.903980000000     0.301840000000     0.983510000000    -0.211928   
N61      N      0.799270000000     0.992790000000     0.993540000000    -0.159148   
N62      N      0.691600000000     0.986410000000     0.989360000000    -0.18574    
N63      N      0.698650000000     0.902560000000     0.029710000000    -0.210638   
N64      N      0.299540000000     0.000990000000     0.991570000000    -0.15868    
N65      N      0.191830000000     0.006750000000     0.988490000000    -0.185896   
N66      N      0.198820000000     0.090500000000     0.028980000000    -0.210309   
N67      N      0.991180000000     0.002300000000     0.806000000000    -0.157806   
N68      N      0.988320000000     0.004370000000     0.697960000000    -0.186801   
N69      N      0.966160000000     0.094460000000     0.702460000000    -0.211827   
N70      N      0.995220000000     0.005400000000     0.305610000000    -0.158091   
N71      N      0.993360000000     0.005690000000     0.197560000000    -0.186662   
N72      N      0.903420000000     0.027120000000     0.201200000000    -0.21202    
O1       O      0.995630000000     0.999810000000     0.001800000000    -0.367906   
O2       O      0.960890000000     0.976300000000     0.120630000000    -0.30063    
O3       O      0.115360000000     0.028810000000     0.027280000000    -0.30466    
O4       O      0.030490000000     0.879750000000     0.977530000000    -0.29571    
O5       O      0.029780000000     0.027550000000     0.120160000000    -0.298437   
O6       O      0.965360000000     0.880840000000     0.033190000000    -0.296493   
O7       O      0.113650000000     0.973910000000     0.961890000000    -0.298783   
O8       O      0.970330000000     0.037190000000     0.884740000000    -0.297672   
O9       O      0.030270000000     0.119290000000     0.030290000000    -0.298974   
O10      O      0.015750000000     0.964400000000     0.882410000000    -0.295421   
O11      O      0.960960000000     0.119830000000     0.980200000000    -0.300466   
O12      O      0.876250000000     0.028780000000     0.968490000000    -0.299517   
O13      O      0.876540000000     0.966860000000     0.027490000000    -0.302881   
O14      O      0.995250000000     0.001810000000     0.502060000000    -0.369767   
O15      O      0.961900000000     0.030040000000     0.383940000000    -0.296965   
O16      O      0.114990000000     0.974230000000     0.475960000000    -0.30587    
O17      O      0.029690000000     0.120420000000     0.524740000000    -0.299745   
O18      O      0.030510000000     0.978740000000     0.382470000000    -0.295867   
O19      O      0.959420000000     0.120790000000     0.475680000000    -0.296272   
O20      O      0.113320000000     0.027540000000     0.542630000000    -0.299761   
O21      O      0.970300000000     0.965550000000     0.620600000000    -0.300151   
O22      O      0.030700000000     0.884640000000     0.470390000000    -0.30074    
O23      O      0.014300000000     0.039220000000     0.620800000000    -0.301288   
O24      O      0.964950000000     0.881530000000     0.525200000000    -0.302712   
O25      O      0.877640000000     0.969040000000     0.535440000000    -0.304889   
O26      O      0.874860000000     0.026640000000     0.472720000000    -0.30399    
O27      O      0.000750000000     0.499750000000     0.001890000000    -0.366316   
O28      O      0.030860000000     0.380800000000     0.974650000000    -0.297227   
O29      O      0.968030000000     0.472290000000     0.121870000000    -0.299098   
O30      O      0.121310000000     0.523900000000     0.036750000000    -0.303636   
O31      O      0.964530000000     0.382950000000     0.029470000000    -0.299989   
O32      O      0.120900000000     0.469130000000     0.970880000000    -0.302019   
O33      O      0.032600000000     0.528350000000     0.120980000000    -0.300937   
O34      O      0.966470000000     0.618000000000     0.977650000000    -0.298709   
O35      O      0.879630000000     0.475590000000     0.035990000000    -0.30161    
O36      O      0.035120000000     0.617800000000     0.029580000000    -0.296521   
O37      O      0.880950000000     0.525420000000     0.966480000000    -0.301391   
O38      O      0.970920000000     0.530020000000     0.881900000000    -0.297084   
O39      O      0.033470000000     0.471550000000     0.882230000000    -0.296602   
O40      O      0.997680000000     0.502110000000     0.501370000000    -0.368158   
O41      O      0.964790000000     0.382770000000     0.530340000000    -0.299391   
O42      O      0.032330000000     0.475060000000     0.384080000000    -0.30145    
O43      O      0.878170000000     0.536890000000     0.474360000000    -0.300542   
O44      O      0.028990000000     0.382660000000     0.473460000000    -0.302239   
O45      O      0.876360000000     0.470330000000     0.528070000000    -0.298351   
O46      O      0.964870000000     0.528340000000     0.382970000000    -0.299517   
O47      O      0.030590000000     0.621820000000     0.528530000000    -0.302314   
O48      O      0.117980000000     0.467630000000     0.474630000000    -0.305112   
O49      O      0.967770000000     0.621160000000     0.470130000000    -0.3023     
O50      O      0.118150000000     0.536910000000     0.524610000000    -0.305073   
O51      O      0.033770000000     0.528010000000     0.618640000000    -0.299177   
O52      O      0.965410000000     0.475640000000     0.619860000000    -0.297161   
O53      O      0.495440000000     0.996200000000     0.999530000000    -0.368913   
O54      O      0.376740000000     0.966340000000     0.965160000000    -0.297584   
O55      O      0.460780000000     0.020990000000     0.119110000000    -0.297238   
O56      O      0.523590000000     0.876370000000     0.030150000000    -0.300526   
O57      O      0.376800000000     0.027870000000     0.024800000000    -0.301003   
O58      O      0.466330000000     0.878200000000     0.966630000000    -0.302385   
O59      O      0.529050000000     0.969330000000     0.118170000000    -0.29905    
O60      O      0.614260000000     0.021300000000     0.963390000000    -0.301647   
O61      O      0.466040000000     0.114980000000     0.031630000000    -0.298442   
O62      O      0.614030000000     0.963030000000     0.025730000000    -0.304929   
O63      O      0.531150000000     0.115230000000     0.976220000000    -0.301374   
O64      O      0.519930000000     0.035270000000     0.882220000000    -0.301053   
O65      O      0.469810000000     0.965960000000     0.879550000000    -0.301064   
O66      O      0.494650000000     0.001120000000     0.500420000000    -0.371182   
O67      O      0.376940000000     0.033350000000     0.536460000000    -0.297342   
O68      O      0.458780000000     0.973620000000     0.381830000000    -0.300451   
O69      O      0.523310000000     0.117980000000     0.461660000000    -0.298834   
O70      O      0.375260000000     0.971830000000     0.476890000000    -0.301694   
O71      O      0.466220000000     0.120450000000     0.525390000000    -0.304726   
O72      O      0.530970000000     0.019740000000     0.380970000000    -0.303049   
O73      O      0.612110000000     0.968910000000     0.532850000000    -0.301234   
O74      O      0.461690000000     0.882890000000     0.471230000000    -0.300988   
O75      O      0.614410000000     0.031360000000     0.474280000000    -0.301378   
O76      O      0.523390000000     0.882070000000     0.530340000000    -0.30414    
O77      O      0.521090000000     0.968540000000     0.619430000000    -0.303829   
O78      O      0.472950000000     0.039440000000     0.618900000000    -0.305293   
O79      O      0.500720000000     0.496270000000     0.995990000000    -0.370354   
O80      O      0.466800000000     0.612580000000     0.961700000000    -0.301449   
O81      O      0.524760000000     0.537620000000     0.114110000000    -0.300891   
O82      O      0.383840000000     0.472060000000     0.038110000000    -0.299726   
O83      O      0.531980000000     0.615080000000     0.016700000000    -0.304337   
O84      O      0.380570000000     0.518760000000     0.966140000000    -0.300032   
O85      O      0.481730000000     0.463880000000     0.117680000000    -0.301076   
O86      O      0.529210000000     0.377130000000     0.965890000000    -0.298571   
O87      O      0.618640000000     0.525170000000     0.030950000000    -0.301119   
O88      O      0.469270000000     0.379900000000     0.026700000000    -0.305531   
O89      O      0.619930000000     0.469080000000     0.965780000000    -0.30427    
O90      O      0.534360000000     0.467850000000     0.877050000000    -0.302161   
O91      O      0.465540000000     0.518390000000     0.875420000000    -0.301901   
O92      O      0.497400000000     0.501070000000     0.495910000000    -0.372069   
O93      O      0.379700000000     0.535300000000     0.464430000000    -0.305727   
O94      O      0.462710000000     0.381610000000     0.520050000000    -0.303219   
O95      O      0.531020000000     0.471920000000     0.378630000000    -0.305527   
O96      O      0.377850000000     0.471150000000     0.521530000000    -0.303916   
O97      O      0.474650000000     0.536590000000     0.377020000000    -0.304341   
O98      O      0.526290000000     0.382400000000     0.463540000000    -0.307896   
O99      O      0.615340000000     0.539370000000     0.519530000000    -0.304726   
O100     O      0.464550000000     0.469340000000     0.613260000000    -0.3007     
O101     O      0.617060000000     0.467960000000     0.471880000000    -0.301596   
O102     O      0.533990000000     0.519800000000     0.614460000000    -0.30193    
O103     O      0.519340000000     0.619700000000     0.536360000000    -0.302513   
O104     O      0.467660000000     0.619810000000     0.468600000000    -0.312009   
Zn1      Zn     0.951140000000     0.957090000000     0.045000000000     0.451919   
Zn2      Zn     0.041400000000     0.042340000000     0.044030000000     0.451214   
Zn3      Zn     0.037660000000     0.955270000000     0.957320000000     0.451019   
Zn4      Zn     0.952060000000     0.045240000000     0.960350000000     0.453174   
Zn5      Zn     0.949150000000     0.044130000000     0.460020000000     0.452115   
Zn6      Zn     0.041290000000     0.961430000000     0.458320000000     0.45375    
Zn7      Zn     0.037250000000     0.046060000000     0.546140000000     0.452122   
Zn8      Zn     0.953630000000     0.955860000000     0.544780000000     0.453194   
Zn9      Zn     0.045190000000     0.456480000000     0.958480000000     0.449551   
Zn10     Zn     0.954750000000     0.458850000000     0.046100000000     0.450559   
Zn11     Zn     0.046270000000     0.541650000000     0.045390000000     0.45131    
Zn12     Zn     0.956340000000     0.542380000000     0.958020000000     0.448611   
Zn13     Zn     0.952020000000     0.459060000000     0.543850000000     0.448134   
Zn14     Zn     0.042610000000     0.457960000000     0.459660000000     0.451409   
Zn15     Zn     0.953310000000     0.545590000000     0.458520000000     0.453871   
Zn16     Zn     0.043290000000     0.546040000000     0.542630000000     0.448679   
Zn17     Zn     0.453000000000     0.953050000000     0.954400000000     0.456982   
Zn18     Zn     0.451150000000     0.038760000000     0.043040000000     0.45289    
Zn19     Zn     0.539070000000     0.952530000000     0.042610000000     0.451956   
Zn20     Zn     0.539140000000     0.040700000000     0.957240000000     0.457248   
Zn21     Zn     0.453640000000     0.047000000000     0.543980000000     0.45668    
Zn22     Zn     0.448950000000     0.958960000000     0.458270000000     0.454372   
Zn23     Zn     0.539660000000     0.041610000000     0.455610000000     0.451847   
Zn24     Zn     0.536480000000     0.956570000000     0.544260000000     0.458366   
Zn25     Zn     0.454610000000     0.535500000000     0.951080000000     0.451359   
Zn26     Zn     0.542800000000     0.541820000000     0.038360000000     0.455932   
Zn27     Zn     0.460070000000     0.454650000000     0.043480000000     0.454579   
Zn28     Zn     0.545080000000     0.453250000000     0.952870000000     0.452008   
Zn29     Zn     0.456040000000     0.546010000000     0.452060000000     0.453835   
Zn30     Zn     0.452130000000     0.457090000000     0.536870000000     0.454511   
Zn31     Zn     0.541990000000     0.457120000000     0.454360000000     0.454986   
Zn32     Zn     0.540420000000     0.544120000000     0.540270000000     0.449038   


