data_structure

_audit_creation_method RASPA-1.0
_audit_creation_date 2023-5-23
_audit_author_name 'Poobodin Mano'

_cell_length_a    47.1308
_cell_length_b    46.9948
_cell_length_c    33.9537
_cell_angle_alpha 89.9986
_cell_angle_beta  89.9993
_cell_angle_gamma 90
_cell_volume      75204.1

_symmetry_cell_setting          triclinic
_symmetry_space_group_name_Hall 'P 1'
_symmetry_space_group_name_H-M  'P 1'
_symmetry_Int_Tables_number     1

_symmetry_equiv_pos_as_xyz 'x,y,z'

loop_
_atom_site_label
_atom_site_type_symbol
_atom_site_fract_x
_atom_site_fract_y
_atom_site_fract_z
_atom_site_charge
C1       C      0.068560000000     0.047400000000     0.213800000000     0.376024   
C2       C      0.002800000000     0.995870000000     0.120000000000     0.371965   
C3       C      0.053980000000     0.942600000000     0.247450000000     0.362288   
C4       C      0.945780000000     0.951120000000     0.235820000000     0.369466   
C5       C      0.956080000000     0.063820000000     0.212050000000     0.373102   
C6       C      0.999470000000     0.014730000000     0.333970000000     0.370988   
C7       C      0.057970000000     0.945420000000     0.740110000000     0.373035   
C8       C      0.001720000000     0.009620000000     0.830520000000     0.3723     
C9       C      0.052850000000     0.052120000000     0.700690000000     0.363526   
C10      C      0.943800000000     0.052620000000     0.707710000000     0.364211   
C11      C      0.943800000000     0.941340000000     0.745580000000     0.369427   
C12      C      0.994450000000     0.981300000000     0.618230000000     0.371665   
C13      C      0.198830000000     0.191670000000     0.122740000000     0.372447   
C14      C      0.258160000000     0.257070000000     0.203580000000     0.370612   
C15      C      0.299710000000     0.197710000000     0.074800000000     0.371591   
C16      C      0.299380000000     0.307000000000     0.084310000000     0.369153   
C17      C      0.187560000000     0.304280000000     0.106430000000     0.37175    
C18      C      0.235120000000     0.250460000000     0.988820000000     0.367852   
C19      C      0.189900000000     0.197480000000     0.608980000000     0.366157   
C20      C      0.236550000000     0.250990000000     0.490340000000     0.367133   
C21      C      0.197650000000     0.310220000000     0.621270000000     0.368496   
C22      C      0.301630000000     0.307920000000     0.577200000000     0.36467    
C23      C      0.304430000000     0.197490000000     0.581550000000     0.364149   
C24      C      0.260430000000     0.244490000000     0.703070000000     0.368984   
C25      C      0.195860000000     0.800920000000     0.326690000000     0.364549   
C26      C      0.299430000000     0.815400000000     0.360990000000     0.375275   
C27      C      0.251610000000     0.742380000000     0.446830000000     0.372507   
C28      C      0.318990000000     0.702320000000     0.349510000000     0.371157   
C29      C      0.269180000000     0.753540000000     0.232930000000     0.370479   
C30      C      0.205740000000     0.693670000000     0.324240000000     0.366442   
C31      C      0.205450000000     0.811540000000     0.821260000000     0.374464   
C32      C      0.244280000000     0.754140000000     0.945720000000     0.369684   
C33      C      0.199670000000     0.699990000000     0.818800000000     0.368471   
C34      C      0.308930000000     0.694430000000     0.861000000000     0.36212    
C35      C      0.314170000000     0.807570000000     0.855280000000     0.362285   
C36      C      0.272590000000     0.752390000000     0.733590000000     0.373429   
C37      C      0.448480000000     0.956450000000     0.941980000000     0.362601   
C38      C      0.446180000000     0.070570000000     0.968810000000     0.373076   
C39      C      0.492710000000     0.006040000000     0.068090000000     0.369512   
C40      C      0.557840000000     0.068070000000     0.983970000000     0.371784   
C41      C      0.504690000000     0.025440000000     0.855070000000     0.368843   
C42      C      0.558180000000     0.960530000000     0.952040000000     0.367814   
C43      C      0.445850000000     0.058400000000     0.488350000000     0.364794   
C44      C      0.437420000000     0.952810000000     0.448870000000     0.375788   
C45      C      0.494820000000     0.014870000000     0.357810000000     0.372622   
C46      C      0.550230000000     0.943150000000     0.443230000000     0.370551   
C47      C      0.503100000000     0.988060000000     0.570940000000     0.369863   
C48      C      0.555920000000     0.054260000000     0.477340000000     0.367087   
C49      C      0.801320000000     0.811190000000     0.315020000000     0.372199   
C50      C      0.695120000000     0.807560000000     0.350530000000     0.3668     
C51      C      0.737670000000     0.741600000000     0.233390000000     0.371902   
C52      C      0.698880000000     0.694930000000     0.360960000000     0.36298    
C53      C      0.761510000000     0.756960000000     0.446280000000     0.369076   
C54      C      0.811750000000     0.703570000000     0.329510000000     0.375011   
C55      C      0.682330000000     0.696960000000     0.845660000000     0.37169    
C56      C      0.747310000000     0.740520000000     0.944630000000     0.368855   
C57      C      0.795590000000     0.697190000000     0.817590000000     0.36371    
C58      C      0.794730000000     0.807110000000     0.830280000000     0.366784   
C59      C      0.687840000000     0.809600000000     0.861440000000     0.371428   
C60      C      0.727940000000     0.755800000000     0.731780000000     0.368134   
C61      C      0.753460000000     0.247170000000     0.196850000000     0.36899    
C62      C      0.821090000000     0.201670000000     0.104260000000     0.372091   
C63      C      0.706560000000     0.198390000000     0.079430000000     0.367912   
C64      C      0.776170000000     0.246970000000     0.984200000000     0.368079   
C65      C      0.808440000000     0.313870000000     0.110940000000     0.373431   
C66      C      0.707660000000     0.307040000000     0.068000000000     0.364136   
C67      C      0.805840000000     0.193550000000     0.608560000000     0.363088   
C68      C      0.763070000000     0.246280000000     0.486620000000     0.37177    
C69      C      0.692870000000     0.196110000000     0.575580000000     0.371331   
C70      C      0.700260000000     0.308500000000     0.576390000000     0.372866   
C71      C      0.804820000000     0.304480000000     0.614230000000     0.364181   
C72      C      0.738000000000     0.244500000000     0.700470000000     0.369605   
C73      C      0.445110000000     0.440390000000     0.990380000000     0.371599   
C74      C      0.444710000000     0.548930000000     0.953330000000     0.36382    
C75      C      0.507870000000     0.505900000000     0.073140000000     0.369433   
C76      C      0.555290000000     0.547740000000     0.946520000000     0.369429   
C77      C      0.495900000000     0.484180000000     0.858760000000     0.367316   
C78      C      0.556400000000     0.436400000000     0.975490000000     0.369196   
C79      C      0.492870000000     0.511240000000     0.573740000000     0.368911   
C80      C      0.448180000000     0.440930000000     0.478730000000     0.366985   
C81      C      0.448400000000     0.555200000000     0.450960000000     0.367949   
C82      C      0.502930000000     0.489130000000     0.360720000000     0.366151   
C83      C      0.560100000000     0.449100000000     0.491910000000     0.370786   
C84      C      0.559200000000     0.553480000000     0.452990000000     0.365415   
C85      C      0.055650000000     0.453670000000     0.189330000000     0.371204   
C86      C      0.061930000000     0.558990000000     0.229410000000     0.367435   
C87      C      0.995350000000     0.526050000000     0.107750000000     0.373264   
C88      C      0.949620000000     0.564410000000     0.232760000000     0.371109   
C89      C      0.003350000000     0.499710000000     0.321360000000     0.366984   
C90      C      0.946220000000     0.454580000000     0.199160000000     0.374648   
C91      C      0.055390000000     0.560800000000     0.731700000000     0.365413   
C92      C      0.995530000000     0.501100000000     0.823100000000     0.366646   
C93      C      0.941730000000     0.561200000000     0.728110000000     0.363475   
C94      C      0.945730000000     0.448620000000     0.698270000000     0.367605   
C95      C      0.056830000000     0.452260000000     0.703330000000     0.370384   
C96      C      0.001700000000     0.518900000000     0.608510000000     0.369044   
C97      C      0.030120000000     0.506400000000     0.422330000000    -0.0834136  
C98      C      0.005720000000     0.515240000000     0.442390000000     0.0343973  
C99      C      0.980350000000     0.517850000000     0.421490000000    -0.0825174  
C100     C      0.979710000000     0.511490000000     0.381280000000     0.0687944  
C101     C      0.028880000000     0.500770000000     0.381970000000     0.0690821  
C102     C      0.005980000000     0.517860000000     0.485760000000     0.0348484  
C103     C      0.013310000000     0.494110000000     0.507970000000    -0.0845003  
C104     C      0.011890000000     0.495250000000     0.548720000000     0.070248   
C105     C      0.997650000000     0.543640000000     0.546770000000     0.0687139  
C106     C      0.998070000000     0.542960000000     0.505320000000    -0.0821902  
C107     C      0.002320000000     0.548780000000     0.004780000000    -0.0820019  
C108     C      0.988810000000     0.525940000000     0.985720000000     0.0346603  
C109     C      0.975000000000     0.505550000000     0.008500000000    -0.0835253  
C110     C      0.976430000000     0.506990000000     0.049210000000     0.0710418  
C111     C      0.002610000000     0.550050000000     0.046190000000     0.0685975  
C112     C      0.990420000000     0.521540000000     0.942590000000     0.035387   
C113     C      0.966000000000     0.514630000000     0.921160000000    -0.0835002  
C114     C      0.968150000000     0.507090000000     0.881510000000     0.0692798  
C115     C      0.018140000000     0.512530000000     0.883940000000     0.0686452  
C116     C      0.016690000000     0.520520000000     0.923560000000    -0.0830671  
C117     C      0.516140000000     0.501310000000     0.757260000000    -0.0828053  
C118     C      0.489680000000     0.501990000000     0.738690000000     0.034915   
C119     C      0.465540000000     0.494820000000     0.760550000000    -0.0832157  
C120     C      0.468090000000     0.487920000000     0.800390000000     0.0692745  
C121     C      0.518010000000     0.493820000000     0.797020000000     0.0688212  
C122     C      0.487580000000     0.507240000000     0.695800000000     0.035111   
C123     C      0.500350000000     0.530890000000     0.677760000000    -0.0824481  
C124     C      0.500150000000     0.533360000000     0.636510000000     0.0689367  
C125     C      0.474830000000     0.489890000000     0.631500000000     0.0707814  
C126     C      0.473910000000     0.487220000000     0.672200000000    -0.0838876  
C127     C      0.531500000000     0.493630000000     0.260660000000    -0.0834673  
C128     C      0.507440000000     0.501480000000     0.239150000000     0.0348634  
C129     C      0.481460000000     0.503750000000     0.258790000000    -0.0825899  
C130     C      0.480010000000     0.498250000000     0.299270000000     0.0686222  
C131     C      0.529410000000     0.488750000000     0.301060000000     0.0694335  
C132     C      0.509170000000     0.504510000000     0.195820000000     0.0351027  
C133     C      0.498820000000     0.528580000000     0.176000000000    -0.08245    
C134     C      0.499960000000     0.529730000000     0.134650000000     0.0687502  
C135     C      0.521080000000     0.483940000000     0.133030000000     0.070468   
C136     C      0.520940000000     0.482420000000     0.173840000000    -0.0841538  
C137     C      0.840240000000     0.359560000000     0.672870000000    -0.0816274  
C138     C      0.864800000000     0.365150000000     0.650850000000     0.0344114  
C139     C      0.868530000000     0.349750000000     0.615600000000    -0.0808044  
C140     C      0.848560000000     0.329300000000     0.603860000000     0.0682515  
C141     C      0.820310000000     0.339780000000     0.659600000000     0.0686698  
C142     C      0.886250000000     0.386700000000     0.664680000000     0.0345754  
C143     C      0.878620000000     0.409340000000     0.689770000000    -0.0811895  
C144     C      0.898970000000     0.429160000000     0.702200000000     0.0684411  
C145     C      0.934260000000     0.405620000000     0.664870000000     0.069058   
C146     C      0.914770000000     0.384910000000     0.653050000000    -0.0816578  
C147     C      0.659480000000     0.375080000000     0.579610000000    -0.0831148  
C148     C      0.646870000000     0.374850000000     0.542210000000     0.0352909  
C149     C      0.652970000000     0.352450000000     0.516630000000    -0.0839118  
C150     C      0.670780000000     0.330580000000     0.528780000000     0.0700966  
C151     C      0.677770000000     0.352970000000     0.590640000000     0.069315   
C152     C      0.625830000000     0.396570000000     0.530380000000     0.0350538  
C153     C      0.626950000000     0.409210000000     0.493020000000    -0.0833711  
C154     C      0.605070000000     0.427200000000     0.480740000000     0.0691893  
C155     C      0.581260000000     0.420460000000     0.541590000000     0.0695574  
C156     C      0.602940000000     0.402790000000     0.554990000000    -0.0834504  
C157     C      0.760090000000     0.218280000000     0.886870000000    -0.0822438  
C158     C      0.762530000000     0.242620000000     0.863240000000     0.0351429  
C159     C      0.773480000000     0.267460000000     0.880450000000    -0.0823747  
C160     C      0.779480000000     0.268190000000     0.920690000000     0.0696867  
C161     C      0.766990000000     0.219560000000     0.926780000000     0.0693567  
C162     C      0.753370000000     0.242310000000     0.821190000000     0.0352414  
C163     C      0.755340000000     0.217500000000     0.798370000000    -0.0823812  
C164     C      0.747950000000     0.218090000000     0.758580000000     0.0695644  
C165     C      0.736090000000     0.266960000000     0.763200000000     0.0698786  
C166     C      0.742560000000     0.266940000000     0.803290000000    -0.0824979  
C167     C      0.732880000000     0.253590000000     0.300790000000    -0.0819707  
C168     C      0.757810000000     0.244310000000     0.319770000000     0.0348647  
C169     C      0.780170000000     0.234560000000     0.296480000000    -0.0832359  
C170     C      0.777770000000     0.234930000000     0.255630000000     0.0696309  
C171     C      0.731070000000     0.253370000000     0.259570000000     0.0687149  
C172     C      0.760240000000     0.243980000000     0.363560000000     0.03496    
C173     C      0.786020000000     0.249720000000     0.383090000000    -0.0816066  
C174     C      0.787230000000     0.249470000000     0.424460000000     0.0686511  
C175     C      0.738400000000     0.237650000000     0.427130000000     0.0700377  
C176     C      0.736540000000     0.237360000000     0.386340000000    -0.083707   
C177     C      0.848350000000     0.380790000000     0.111960000000    -0.0834458  
C178     C      0.858570000000     0.380810000000     0.150760000000     0.0354028  
C179     C      0.849880000000     0.359360000000     0.176390000000    -0.0840573  
C180     C      0.832650000000     0.337560000000     0.162550000000     0.0706128  
C181     C      0.830530000000     0.358830000000     0.099230000000     0.0697409  
C182     C      0.880690000000     0.401030000000     0.163440000000     0.0354944  
C183     C      0.905250000000     0.403850000000     0.140920000000    -0.084319   
C184     C      0.927220000000     0.421060000000     0.154190000000     0.0701519  
C185     C      0.901050000000     0.433220000000     0.211480000000     0.0694883  
C186     C      0.878740000000     0.415630000000     0.199330000000    -0.0834929  
C187     C      0.668910000000     0.356770000000     0.004380000000    -0.0812583  
C188     C      0.643840000000     0.361390000000     0.025670000000     0.0342262  
C189     C      0.641230000000     0.347880000000     0.062540000000    -0.0811372  
C190     C      0.662680000000     0.329820000000     0.076410000000     0.0683399  
C191     C      0.690220000000     0.339300000000     0.019640000000     0.0684065  
C192     C      0.620630000000     0.379980000000     0.009580000000     0.034977   
C193     C      0.626320000000     0.402470000000     0.983290000000    -0.0814492  
C194     C      0.604310000000     0.420150000000     0.970010000000     0.0684342  
C195     C      0.571100000000     0.394070000000     0.007820000000     0.0696491  
C196     C      0.592300000000     0.375530000000     0.020600000000    -0.0823112  
C197     C      0.830360000000     0.637850000000     0.766470000000    -0.0826833  
C198     C      0.858740000000     0.641330000000     0.777460000000     0.0341453  
C199     C      0.865600000000     0.663750000000     0.803000000000    -0.0816147  
C200     C      0.844160000000     0.681870000000     0.817150000000     0.0674674  
C201     C      0.809670000000     0.656580000000     0.780410000000     0.0682378  
C202     C      0.880570000000     0.620750000000     0.763490000000     0.0341375  
C203     C      0.875900000000     0.591520000000     0.767640000000    -0.0827057  
C204     C      0.896340000000     0.572080000000     0.754930000000     0.0684225  
C205     C      0.925650000000     0.609570000000     0.732160000000     0.0674551  
C206     C      0.905790000000     0.629750000000     0.745450000000    -0.0815738  
C207     C      0.607900000000     0.583300000000     0.884650000000    -0.0828302  
C208     C      0.609510000000     0.610330000000     0.901840000000     0.0349182  
C209     C      0.593530000000     0.615350000000     0.936170000000    -0.0819768  
C210     C      0.575770000000     0.594130000000     0.951300000000     0.0691673  
C211     C      0.590700000000     0.562420000000     0.901190000000     0.069464   
C212     C      0.627550000000     0.633060000000     0.883910000000     0.0350526  
C213     C      0.652140000000     0.626370000000     0.862300000000    -0.0821506  
C214     C      0.669220000000     0.648050000000     0.847060000000     0.0693026  
C215     C      0.638420000000     0.682890000000     0.873770000000     0.0702396  
C216     C      0.620410000000     0.661830000000     0.888240000000    -0.0828858  
C217     C      0.730020000000     0.733810000000     0.628490000000    -0.0822415  
C218     C      0.739730000000     0.758770000000     0.610160000000     0.0352123  
C219     C      0.742160000000     0.783430000000     0.633200000000    -0.0822945  
C220     C      0.736150000000     0.782470000000     0.673400000000     0.069519   
C221     C      0.724980000000     0.733430000000     0.669000000000     0.0699397  
C222     C      0.747580000000     0.758930000000     0.567560000000     0.0352627  
C223     C      0.758130000000     0.734330000000     0.549230000000    -0.0822878  
C224     C      0.763710000000     0.734290000000     0.508880000000     0.0699831  
C225     C      0.751240000000     0.783030000000     0.504590000000     0.0695611  
C226     C      0.744650000000     0.783600000000     0.544640000000    -0.082293   
C227     C      0.762800000000     0.725780000000     0.134220000000    -0.0834376  
C228     C      0.739790000000     0.733960000000     0.111000000000     0.0351227  
C229     C      0.714470000000     0.742010000000     0.130130000000    -0.081487   
C230     C      0.713250000000     0.742950000000     0.171450000000     0.0690344  
C231     C      0.761020000000     0.727460000000     0.174970000000     0.0706069  
C232     C      0.742570000000     0.734280000000     0.067240000000     0.0352037  
C233     C      0.768340000000     0.741530000000     0.048720000000    -0.0819185  
C234     C      0.770190000000     0.742310000000     0.007530000000     0.0694923  
C235     C      0.721920000000     0.728680000000     0.002660000000     0.0702982  
C236     C      0.719450000000     0.727290000000     0.043460000000    -0.0833091  
C237     C      0.920300000000     0.633770000000     0.259710000000    -0.082809   
C238     C      0.895110000000     0.625750000000     0.278850000000     0.0353121  
C239     C      0.887960000000     0.596880000000     0.279850000000    -0.083334   
C240     C      0.906060000000     0.576830000000     0.263210000000     0.0704241  
C241     C      0.937670000000     0.613130000000     0.242570000000     0.0697875  
C242     C      0.875550000000     0.647360000000     0.295730000000     0.0353501  
C243     C      0.858730000000     0.641440000000     0.328950000000    -0.0826404  
C244     C      0.838100000000     0.660940000000     0.341210000000     0.0695083  
C245     C      0.851950000000     0.692720000000     0.290510000000     0.0702846  
C246     C      0.872320000000     0.673690000000     0.277200000000    -0.0837109  
C247     C      0.668600000000     0.631630000000     0.408410000000    -0.082682   
C248     C      0.639550000000     0.635440000000     0.401790000000     0.0342834  
C249     C      0.630770000000     0.659160000000     0.379990000000    -0.0819721  
C250     C      0.650940000000     0.678400000000     0.365320000000     0.0679121  
C251     C      0.688080000000     0.651550000000     0.394160000000     0.0684824  
C252     C      0.618770000000     0.614150000000     0.416570000000     0.034458   
C253     C      0.595310000000     0.622250000000     0.439330000000    -0.082173   
C254     C      0.576100000000     0.601570000000     0.452780000000     0.0678697  
C255     C      0.602600000000     0.565370000000     0.421040000000     0.0686538  
C256     C      0.622470000000     0.585300000000     0.408020000000    -0.0828983  
C257     C      0.614830000000     0.899620000000     0.438420000000    -0.081868   
C258     C      0.610210000000     0.883990000000     0.403690000000     0.0348185  
C259     C      0.584320000000     0.887640000000     0.384110000000    -0.0824211  
C260     C      0.564240000000     0.906740000000     0.398630000000     0.0692288  
C261     C      0.594400000000     0.918950000000     0.451810000000     0.0689165  
C262     C      0.632390000000     0.864490000000     0.387560000000     0.0348739  
C263     C      0.661230000000     0.870840000000     0.392170000000    -0.0825454  
C264     C      0.681820000000     0.852010000000     0.378400000000     0.0693451  
C265     C      0.646370000000     0.821330000000     0.353060000000     0.0687     
C266     C      0.625130000000     0.839510000000     0.367140000000    -0.0818257  
C267     C      0.650070000000     0.130880000000     0.568850000000    -0.0817264  
C268     C      0.633470000000     0.136610000000     0.535320000000     0.0348958  
C269     C      0.636390000000     0.163260000000     0.517400000000    -0.0829066  
C270     C      0.655460000000     0.183100000000     0.532410000000     0.0693784  
C271     C      0.669520000000     0.151140000000     0.582670000000     0.06871    
C272     C      0.613580000000     0.114970000000     0.518560000000     0.0347662  
C273     C      0.619520000000     0.085830000000     0.521350000000    -0.0822832  
C274     C      0.600440000000     0.065890000000     0.506280000000     0.0691591  
C275     C      0.570340000000     0.102680000000     0.483340000000     0.0689559  
C276     C      0.588640000000     0.123210000000     0.498910000000    -0.0819978  
C277     C      0.481980000000     0.020810000000     0.752380000000    -0.0822957  
C278     C      0.506790000000     0.010800000000     0.734140000000     0.0354096  
C279     C      0.531620000000     0.009270000000     0.756830000000    -0.0823547  
C280     C      0.530970000000     0.016430000000     0.796680000000     0.0697428  
C281     C      0.481890000000     0.026890000000     0.792600000000     0.0702879  
C282     C      0.506640000000     0.001900000000     0.691930000000     0.0354039  
C283     C      0.481900000000     0.991170000000     0.674330000000    -0.0823961  
C284     C      0.481390000000     0.985300000000     0.634060000000     0.0702965  
C285     C      0.530060000000     0.997290000000     0.628660000000     0.0694964  
C286     C      0.531080000000     0.004260000000     0.668560000000    -0.0821939  
C287     C      0.499330000000     0.985000000000     0.171680000000    -0.081927   
C288     C      0.491240000000     0.010280000000     0.190960000000     0.0350469  
C289     C      0.482010000000     0.033090000000     0.167960000000    -0.0831063  
C290     C      0.481840000000     0.030760000000     0.127100000000     0.0698718  
C291     C      0.498430000000     0.983230000000     0.130530000000     0.0691195  
C292     C      0.491580000000     0.012570000000     0.234770000000     0.0352294  
C293     C      0.485210000000     0.988730000000     0.257510000000    -0.08389    
C294     C      0.486160000000     0.990360000000     0.298250000000     0.070277   
C295     C      0.498050000000     0.039320000000     0.295780000000     0.0688477  
C296     C      0.497790000000     0.038290000000     0.254390000000    -0.0815769  
C297     C      0.591540000000     0.890570000000     0.940820000000    -0.081992   
C298     C      0.615310000000     0.897200000000     0.917590000000     0.0348294  
C299     C      0.620470000000     0.925880000000     0.908910000000    -0.0824979  
C300     C      0.601630000000     0.946810000000     0.921790000000     0.0693106  
C301     C      0.573390000000     0.912140000000     0.953850000000     0.0688741  
C302     C      0.634510000000     0.874400000000     0.902470000000     0.0349659  
C303     C      0.648180000000     0.876860000000     0.865800000000    -0.0819038  
C304     C      0.666100000000     0.855130000000     0.852390000000     0.0689018  
C305     C      0.656800000000     0.828330000000     0.910050000000     0.0695249  
C306     C      0.639270000000     0.849750000000     0.924600000000    -0.0828324  
C307     C      0.595330000000     0.119320000000     0.046320000000    -0.0829437  
C308     C      0.620500000000     0.123670000000     0.025380000000     0.0352891  
C309     C      0.624020000000     0.109250000000     0.989410000000    -0.0822698  
C310     C      0.602890000000     0.090780000000     0.975660000000     0.0690699  
C311     C      0.574620000000     0.101060000000     0.031580000000     0.0696537  
C312     C      0.643000000000     0.142780000000     0.041380000000     0.0348836  
C313     C      0.636120000000     0.167410000000     0.062850000000    -0.0819455  
C314     C      0.657640000000     0.185190000000     0.077070000000     0.0688876  
C315     C      0.692560000000     0.154740000000     0.049850000000     0.069411   
C316     C      0.671690000000     0.136370000000     0.035720000000    -0.0826433  
C317     C      0.119450000000     0.591480000000     0.775960000000    -0.0820334  
C318     C      0.116250000000     0.620490000000     0.767720000000     0.0344353  
C319     C      0.092670000000     0.628860000000     0.745090000000    -0.0813829  
C320     C      0.072990000000     0.608580000000     0.731960000000     0.0681226  
C321     C      0.099240000000     0.571910000000     0.762920000000     0.0686099  
C322     C      0.137620000000     0.641670000000     0.782100000000     0.0344775  
C323     C      0.152040000000     0.637910000000     0.818040000000    -0.0814499  
C324     C      0.172690000000     0.657560000000     0.830140000000     0.0680669  
C325     C      0.164640000000     0.685040000000     0.772770000000     0.0687086  
C326     C      0.144260000000     0.665720000000     0.759600000000    -0.0821501  
C327     C      0.411610000000     0.618980000000     0.937400000000    -0.0817297  
C328     C      0.386900000000     0.611410000000     0.916920000000     0.0342471  
C329     C      0.381410000000     0.582490000000     0.910820000000    -0.0825149  
C330     C      0.400670000000     0.561980000000     0.923960000000     0.0683867  
C331     C      0.430240000000     0.597790000000     0.950910000000     0.0675687  
C332     C      0.366690000000     0.633320000000     0.902030000000     0.0342182  
C333     C      0.337530000000     0.630370000000     0.908620000000    -0.0824845  
C334     C      0.318610000000     0.650810000000     0.894300000000     0.0682348  
C335     C      0.356490000000     0.676710000000     0.865710000000     0.0675539  
C336     C      0.376110000000     0.656860000000     0.880300000000    -0.0816832  
C337     C      0.382720000000     0.843980000000     0.870960000000    -0.0812502  
C338     C      0.373850000000     0.869060000000     0.889750000000     0.0339483  
C339     C      0.344780000000     0.873240000000     0.895390000000    -0.0827246  
C340     C      0.325380000000     0.852630000000     0.883200000000     0.0682009  
C341     C      0.362520000000     0.823880000000     0.858200000000     0.0668575  
C342     C      0.394260000000     0.891410000000     0.902800000000     0.0339713  
C343     C      0.417020000000     0.885210000000     0.927960000000    -0.0814275  
C344     C      0.434620000000     0.907260000000     0.941770000000     0.0670531  
C345     C      0.408160000000     0.941060000000     0.905340000000     0.0680349  
C346     C      0.389960000000     0.919760000000     0.891740000000    -0.0825311  
C347     C      0.234580000000     0.739060000000     0.552350000000    -0.081777   
C348     C      0.262040000000     0.739430000000     0.568930000000     0.0349959  
C349     C      0.285200000000     0.737670000000     0.543540000000    -0.0834487  
C350     C      0.280910000000     0.737220000000     0.503080000000     0.0697899  
C351     C      0.231040000000     0.739010000000     0.511310000000     0.0687531  
C352     C      0.266640000000     0.743810000000     0.611980000000     0.0353247  
C353     C      0.247840000000     0.760960000000     0.633030000000    -0.0838069  
C354     C      0.251410000000     0.764710000000     0.673200000000     0.0716583  
C355     C      0.293530000000     0.737170000000     0.672810000000     0.0694269  
C356     C      0.290210000000     0.732370000000     0.632200000000    -0.0816032  
C357     C      0.269410000000     0.729990000000     0.130170000000    -0.0824388  
C358     C      0.260380000000     0.754780000000     0.110820000000     0.0353175  
C359     C      0.257040000000     0.779630000000     0.133190000000    -0.0829894  
C360     C      0.261970000000     0.779180000000     0.173590000000     0.0698996  
C361     C      0.273370000000     0.730110000000     0.170950000000     0.0698555  
C362     C      0.254390000000     0.754850000000     0.067710000000     0.035489   
C363     C      0.258580000000     0.779530000000     0.045280000000    -0.0831389  
C364     C      0.253340000000     0.779290000000     0.004960000000     0.07053    
C365     C      0.240120000000     0.730690000000     0.007710000000     0.0703681  
C366     C      0.244360000000     0.730400000000     0.048440000000    -0.0826477  
C367     C      0.173820000000     0.631930000000     0.275780000000    -0.0836263  
C368     C      0.145120000000     0.635750000000     0.284520000000     0.035012   
C369     C      0.137170000000     0.658450000000     0.308820000000    -0.0828128  
C370     C      0.157880000000     0.677000000000     0.323440000000     0.0689411  
C371     C      0.193830000000     0.651140000000     0.290140000000     0.0696463  
C372     C      0.123740000000     0.615800000000     0.268610000000     0.0349565  
C373     C      0.100010000000     0.625720000000     0.247990000000    -0.0829194  
C374     C      0.080090000000     0.606330000000     0.233330000000     0.0688043  
C375     C      0.106670000000     0.567810000000     0.259350000000     0.0696017  
C376     C      0.127210000000     0.586500000000     0.273590000000    -0.0835495  
C377     C      0.420960000000     0.625960000000     0.426690000000    -0.0820181  
C378     C      0.395760000000     0.619200000000     0.406560000000     0.0348771  
C379     C      0.387810000000     0.590490000000     0.404510000000    -0.0824154  
C380     C      0.405290000000     0.569490000000     0.420480000000     0.0696827  
C381     C      0.437510000000     0.604420000000     0.443410000000     0.0690872  
C382     C      0.377520000000     0.641840000000     0.388670000000     0.0348868  
C383     C      0.376660000000     0.669230000000     0.404920000000    -0.0825529  
C384     C      0.358240000000     0.689630000000     0.389660000000     0.0693635  
C385     C      0.341290000000     0.656980000000     0.342050000000     0.0691     
C386     C      0.360110000000     0.636230000000     0.355920000000    -0.0818981  
C387     C      0.390580000000     0.909670000000     0.387620000000    -0.0845829  
C388     C      0.367440000000     0.905670000000     0.412540000000     0.0356874  
C389     C      0.367650000000     0.918300000000     0.449910000000    -0.0840849  
C390     C      0.391080000000     0.934450000000     0.461710000000     0.0699514  
C391     C      0.413790000000     0.925230000000     0.400620000000     0.070742   
C392     C      0.345550000000     0.884870000000     0.401310000000     0.0355725  
C393     C      0.332280000000     0.886000000000     0.364390000000    -0.0839482  
C394     C      0.315780000000     0.863030000000     0.351690000000     0.0700277  
C395     C      0.325290000000     0.838530000000     0.411380000000     0.0710001  
C396     C      0.341170000000     0.861260000000     0.425330000000    -0.0844694  
C397     C      0.099370000000     0.401840000000     0.646230000000    -0.0836269  
C398     C      0.121950000000     0.396260000000     0.671650000000     0.0347771  
C399     C      0.122260000000     0.409560000000     0.708660000000    -0.0824148  
C400     C      0.100380000000     0.428390000000     0.719120000000     0.0683482  
C401     C      0.077730000000     0.420150000000     0.657840000000     0.0691816  
C402     C      0.144010000000     0.375410000000     0.659790000000     0.0346231  
C403     C      0.150830000000     0.352670000000     0.684470000000    -0.0828805  
C404     C      0.168930000000     0.331230000000     0.671090000000     0.0687767  
C405     C      0.175050000000     0.355050000000     0.610130000000     0.0686327  
C406     C      0.156570000000     0.376640000000     0.622360000000    -0.0827296  
C407     C      0.414740000000     0.378210000000     0.523050000000    -0.0815914  
C408     C      0.385820000000     0.383280000000     0.516100000000     0.034197   
C409     C      0.378750000000     0.407020000000     0.492710000000    -0.0808126  
C410     C      0.399990000000     0.425110000000     0.478180000000     0.0679478  
C411     C      0.435270000000     0.397180000000     0.509170000000     0.0687725  
C412     C      0.363420000000     0.364070000000     0.533200000000     0.0342264  
C413     C      0.368200000000     0.348340000000     0.567910000000    -0.0808937  
C414     C      0.347370000000     0.329800000000     0.582530000000     0.0680626  
C415     C      0.316290000000     0.343110000000     0.531030000000     0.0682911  
C416     C      0.336860000000     0.361100000000     0.514990000000    -0.0814938  
C417     C      0.374580000000     0.165470000000     0.563320000000    -0.0819046  
C418     C      0.366940000000     0.140360000000     0.543740000000     0.0343768  
C419     C      0.338120000000     0.134440000000     0.538600000000    -0.0831878  
C420     C      0.317680000000     0.153550000000     0.552070000000     0.0688132  
C421     C      0.353420000000     0.183980000000     0.577280000000     0.0677499  
C422     C      0.388470000000     0.119580000000     0.529780000000     0.034342   
C423     C      0.410480000000     0.127460000000     0.504210000000    -0.081878   
C424     C      0.429280000000     0.106710000000     0.489760000000     0.0676718  
C425     C      0.405450000000     0.071070000000     0.526430000000     0.068811   
C426     C      0.386130000000     0.091020000000     0.540700000000    -0.0831444  
C427     C      0.236110000000     0.228400000000     0.802300000000    -0.0840408  
C428     C      0.256750000000     0.241540000000     0.825430000000     0.0351162  
C429     C      0.280710000000     0.253190000000     0.806800000000    -0.0823087  
C430     C      0.282920000000     0.252360000000     0.765510000000     0.0687948  
C431     C      0.238700000000     0.228460000000     0.761630000000     0.0707925  
C432     C      0.252010000000     0.243860000000     0.868500000000     0.0348225  
C433     C      0.255020000000     0.269940000000     0.887910000000    -0.0824704  
C434     C      0.248000000000     0.272150000000     0.927840000000     0.0686091  
C435     C      0.235170000000     0.223380000000     0.929620000000     0.0691784  
C436     C      0.241810000000     0.220490000000     0.889800000000    -0.0834315  
C437     C      0.234250000000     0.271480000000     0.303520000000    -0.0843934  
C438     C      0.254920000000     0.257910000000     0.326090000000     0.0351682  
C439     C      0.278580000000     0.246120000000     0.306920000000    -0.082491   
C440     C      0.280570000000     0.247500000000     0.265630000000     0.0688353  
C441     C      0.236630000000     0.271990000000     0.262840000000     0.0708297  
C442     C      0.250810000000     0.255860000000     0.369270000000     0.0348438  
C443     C      0.241950000000     0.279740000000     0.390580000000    -0.083638   
C444     C      0.236110000000     0.277410000000     0.430650000000     0.0694213  
C445     C      0.246940000000     0.228150000000     0.429160000000     0.0686422  
C446     C      0.253190000000     0.229800000000     0.388910000000    -0.0824729  
C447     C      0.148330000000     0.371580000000     0.103860000000    -0.0834551  
C448     C      0.131990000000     0.369110000000     0.138110000000     0.0352962  
C449     C      0.132880000000     0.343780000000     0.159450000000    -0.084142   
C450     C      0.150470000000     0.321760000000     0.147050000000     0.0698894  
C451     C      0.166230000000     0.349270000000     0.092670000000     0.0694175  
C452     C      0.113310000000     0.392430000000     0.151180000000     0.0353244  
C453     C      0.114650000000     0.402810000000     0.189820000000    -0.0835954  
C454     C      0.095630000000     0.423860000000     0.202090000000     0.0694529  
C455     C      0.074060000000     0.423970000000     0.138930000000     0.0699635  
C456     C      0.093070000000     0.403500000000     0.125510000000    -0.084153   
C457     C      0.408030000000     0.389680000000     0.053770000000    -0.0834076  
C458     C      0.383190000000     0.384510000000     0.032460000000     0.0354889  
C459     C      0.379660000000     0.398290000000     0.996050000000    -0.0827427  
C460     C      0.400530000000     0.416930000000     0.982140000000     0.0691456  
C461     C      0.428530000000     0.408010000000     0.038800000000     0.0698544  
C462     C      0.361160000000     0.364950000000     0.048330000000     0.0350385  
C463     C      0.368630000000     0.340750000000     0.070280000000    -0.0823625  
C464     C      0.347610000000     0.322270000000     0.083980000000     0.0693849  
C465     C      0.311980000000     0.351220000000     0.055300000000     0.0698576  
C466     C      0.332350000000     0.370330000000     0.041760000000    -0.0829825  
C467     C      0.412110000000     0.133210000000     0.010810000000    -0.0829057  
C468     C      0.383370000000     0.126170000000     0.007210000000     0.0355097  
C469     C      0.376210000000     0.101600000000     0.985710000000    -0.082489   
C470     C      0.397530000000     0.084220000000     0.970210000000     0.0696447  
C471     C      0.432770000000     0.114980000000     0.996030000000     0.0702487  
C472     C      0.361200000000     0.144240000000     0.026080000000     0.0351143  
C473     C      0.366720000000     0.159320000000     0.061050000000    -0.0822034  
C474     C      0.345930000000     0.176960000000     0.077390000000     0.0695282  
C475     C      0.313800000000     0.163830000000     0.026880000000     0.0698627  
C476     C      0.334230000000     0.146700000000     0.009240000000    -0.0827694  
C477     C      0.910840000000     0.122230000000     0.687200000000    -0.0814388  
C478     C      0.886970000000     0.114030000000     0.665250000000     0.0343139  
C479     C      0.882270000000     0.084970000000     0.659250000000    -0.0828471  
C480     C      0.901110000000     0.064930000000     0.674480000000     0.0685394  
C481     C      0.929260000000     0.101440000000     0.702530000000     0.0675756  
C482     C      0.866230000000     0.135180000000     0.649700000000     0.0343017  
C483     C      0.874840000000     0.159780000000     0.629540000000    -0.0813682  
C484     C      0.854430000000     0.178730000000     0.614500000000     0.067524   
C485     C      0.817490000000     0.149630000000     0.639310000000     0.0686533  
C486     C      0.837140000000     0.130260000000     0.654160000000    -0.0829119  
C487     C      0.877860000000     0.899690000000     0.748120000000    -0.0816845  
C488     C      0.881210000000     0.884090000000     0.783180000000     0.0347046  
C489     C      0.906510000000     0.887610000000     0.804270000000    -0.0821831  
C490     C      0.927390000000     0.906210000000     0.790600000000     0.0689926  
C491     C      0.898990000000     0.918630000000     0.735710000000     0.0687618  
C492     C      0.858450000000     0.864540000000     0.797800000000     0.0347256  
C493     C      0.829810000000     0.870320000000     0.790170000000    -0.0823131  
C494     C      0.808830000000     0.851290000000     0.802260000000     0.0692396  
C495     C      0.843300000000     0.821600000000     0.832000000000     0.0685637  
C496     C      0.864960000000     0.839900000000     0.819520000000    -0.0815926  
C497     C      0.127050000000     0.909370000000     0.739330000000    -0.0835745  
C498     C      0.126220000000     0.895140000000     0.775580000000     0.035113   
C499     C      0.102360000000     0.898140000000     0.799450000000    -0.0842233  
C500     C      0.079640000000     0.914640000000     0.786650000000     0.0697985  
C501     C      0.104130000000     0.926370000000     0.727790000000     0.0692857  
C502     C      0.148710000000     0.874910000000     0.786960000000     0.0351347  
C503     C      0.155180000000     0.852340000000     0.761930000000    -0.0844333  
C504     C      0.174020000000     0.831390000000     0.774220000000     0.0699637  
C505     C      0.181480000000     0.855330000000     0.834870000000     0.0691274  
C506     C      0.162010000000     0.876410000000     0.823830000000    -0.0835611  
C507     C      0.105890000000     0.088150000000     0.639150000000    -0.0814915  
C508     C      0.110030000000     0.113940000000     0.659110000000     0.0341548  
C509     C      0.094600000000     0.118210000000     0.694180000000    -0.0807861  
C510     C      0.075480000000     0.097510000000     0.707720000000     0.0678519  
C511     C      0.087280000000     0.067670000000     0.654070000000     0.0682377  
C512     C      0.130200000000     0.136070000000     0.643490000000     0.0341734  
C513     C      0.153740000000     0.128680000000     0.620010000000    -0.0809392  
C514     C      0.172660000000     0.149630000000     0.606730000000     0.0678491  
C515     C      0.146000000000     0.185230000000     0.639230000000     0.0685056  
C516     C      0.126270000000     0.165020000000     0.651990000000    -0.081565   
C517     C      0.968240000000     0.996130000000     0.519400000000    -0.0827042  
C518     C      0.993000000000     0.992740000000     0.496960000000     0.0356981  
C519     C      0.017060000000     0.981350000000     0.515510000000    -0.0831649  
C520     C      0.016770000000     0.976110000000     0.555900000000     0.0702015  
C521     C      0.968440000000     0.989790000000     0.559500000000     0.0699458  
C522     C      0.993980000000     0.001390000000     0.454760000000     0.0357009  
C523     C      0.969690000000     0.000160000000     0.430980000000    -0.0825185  
C524     C      0.971470000000     0.006960000000     0.391100000000     0.0698799  
C525     C      0.020600000000     0.016660000000     0.397460000000     0.0702773  
C526     C      0.019390000000     0.010900000000     0.437680000000    -0.0831061  
C527     C      0.011110000000     0.983240000000     0.930610000000    -0.0836637  
C528     C      0.000840000000     0.005690000000     0.953390000000     0.0345399  
C529     C      0.992630000000     0.030910000000     0.933890000000    -0.0811852  
C530     C      0.994270000000     0.032770000000     0.892650000000     0.0692529  
C531     C      0.011770000000     0.985550000000     0.889910000000     0.0705775  
C532     C      0.999910000000     0.002810000000     0.997160000000     0.0352306  
C533     C      0.995560000000     0.976270000000     0.015640000000    -0.0814666  
C534     C      0.996860000000     0.973920000000     0.056780000000     0.0690451  
C535     C      0.005260000000     0.023500000000     0.061730000000     0.069763   
C536     C      0.004750000000     0.026470000000     0.021030000000    -0.0835789  
C537     C      0.889770000000     0.101420000000     0.190920000000    -0.0830569  
C538     C      0.899690000000     0.123700000000     0.167250000000     0.0353918  
C539     C      0.928900000000     0.126890000000     0.161940000000    -0.0840185  
C540     C      0.947480000000     0.107310000000     0.178650000000     0.0705447  
C541     C      0.909070000000     0.082380000000     0.207800000000     0.0694483  
C542     C      0.879840000000     0.143890000000     0.148420000000     0.0353162  
C543     C      0.856270000000     0.134240000000     0.127180000000    -0.0830816  
C544     C      0.837570000000     0.153900000000     0.110350000000     0.0694848  
C545     C      0.865360000000     0.192120000000     0.134760000000     0.0703469  
C546     C      0.884620000000     0.173150000000     0.151320000000    -0.0839863  
C547     C      0.847910000000     0.873810000000     0.316440000000    -0.0822613  
C548     C      0.860990000000     0.871720000000     0.279350000000     0.0351394  
C549     C      0.852940000000     0.849460000000     0.254480000000    -0.0832982  
C550     C      0.832830000000     0.829740000000     0.266910000000     0.0698374  
C551     C      0.827570000000     0.853720000000     0.327880000000     0.0691053  
C552     C      0.882820000000     0.892610000000     0.266460000000     0.0350416  
C553     C      0.880240000000     0.921360000000     0.276340000000    -0.0831117  
C554     C      0.901130000000     0.940630000000     0.264890000000     0.0695575  
C555     C      0.926820000000     0.904050000000     0.232680000000     0.069111   
C556     C      0.906360000000     0.884090000000     0.243960000000    -0.0822736  
C557     C      0.103360000000     0.900090000000     0.306870000000    -0.0827257  
C558     C      0.107220000000     0.876090000000     0.283290000000     0.0341447  
C559     C      0.092330000000     0.874310000000     0.247620000000    -0.0824604  
C560     C      0.074020000000     0.896410000000     0.236280000000     0.067837   
C561     C      0.085620000000     0.922070000000     0.294180000000     0.0683592  
C562     C      0.129040000000     0.854730000000     0.294050000000     0.0343672  
C563     C      0.152890000000     0.851540000000     0.270190000000    -0.083277   
C564     C      0.174930000000     0.833670000000     0.281940000000     0.068716   
C565     C      0.149760000000     0.820620000000     0.339620000000     0.0676681  
C566     C      0.127540000000     0.839140000000     0.329230000000    -0.0824044  
C567     C      0.158740000000     0.145500000000     0.189390000000    -0.0833082  
C568     C      0.156200000000     0.120830000000     0.166790000000     0.0352652  
C569     C      0.169360000000     0.119780000000     0.129840000000    -0.0837981  
C570     C      0.183820000000     0.143550000000     0.115620000000     0.0698493  
C571     C      0.173090000000     0.168970000000     0.174130000000     0.0698567  
C572     C      0.136000000000     0.098450000000     0.178700000000     0.0357981  
C573     C      0.135660000000     0.086990000000     0.216870000000    -0.0833607  
C574     C      0.113610000000     0.068620000000     0.228060000000     0.0697485  
C575     C      0.092890000000     0.073130000000     0.164660000000     0.0715579  
C576     C      0.114730000000     0.090690000000     0.152320000000    -0.0847494  
H1       H      0.960940000000     0.523960000000     0.436370000000     0.0548095  
H2       H      0.959570000000     0.513780000000     0.366180000000     0.0325411  
H3       H      0.048330000000     0.494260000000     0.367470000000     0.0315071  
H4       H      0.050010000000     0.503660000000     0.437870000000     0.0544474  
H5       H      0.019450000000     0.474360000000     0.493830000000     0.0548953  
H6       H      0.017570000000     0.475970000000     0.564410000000     0.0325628  
H7       H      0.991320000000     0.563190000000     0.561260000000     0.0302249  
H8       H      0.992270000000     0.561780000000     0.488760000000     0.0546062  
H9       H      0.964280000000     0.487640000000     0.994960000000     0.0541732  
H10      H      0.966060000000     0.490090000000     0.065560000000     0.0313575  
H11      H      0.013960000000     0.567310000000     0.060310000000     0.0294772  
H12      H      0.013040000000     0.565100000000     0.987870000000     0.0537573  
H13      H      0.945320000000     0.514840000000     0.935080000000     0.0539549  
H14      H      0.948660000000     0.502140000000     0.865990000000     0.0318276  
H15      H      0.038940000000     0.512030000000     0.870330000000     0.0323211  
H16      H      0.036090000000     0.525050000000     0.939480000000     0.0544326  
H17      H      0.444750000000     0.494710000000     0.746940000000     0.0541531  
H18      H      0.448790000000     0.483020000000     0.816370000000     0.0317898  
H19      H      0.538910000000     0.493810000000     0.810340000000     0.0318676  
H20      H      0.535340000000     0.506020000000     0.740970000000     0.0543262  
H21      H      0.510870000000     0.546980000000     0.695330000000     0.0542693  
H22      H      0.510990000000     0.551300000000     0.623230000000     0.0301751  
H23      H      0.464670000000     0.473260000000     0.614400000000     0.0318453  
H24      H      0.463690000000     0.468760000000     0.685030000000     0.0546901  
H25      H      0.462300000000     0.509180000000     0.242850000000     0.0544936  
H26      H      0.459530000000     0.500420000000     0.313480000000     0.0321146  
H27      H      0.548710000000     0.483080000000     0.316580000000     0.0319162  
H28      H      0.551910000000     0.491350000000     0.246310000000     0.0543091  
H29      H      0.489800000000     0.546210000000     0.192290000000     0.0543782  
H30      H      0.491300000000     0.548300000000     0.120010000000     0.030426   
H31      H      0.529990000000     0.465910000000     0.117370000000     0.0322611  
H32      H      0.529220000000     0.463530000000     0.188100000000     0.0545604  
H33      H      0.886570000000     0.353490000000     0.596610000000     0.0524665  
H34      H      0.852420000000     0.317860000000     0.576660000000     0.0310539  
H35      H      0.801800000000     0.336370000000     0.677970000000     0.0324063  
H36      H      0.836330000000     0.369930000000     0.700770000000     0.0522017  
H37      H      0.856950000000     0.412400000000     0.699280000000     0.0521172  
H38      H      0.892000000000     0.446400000000     0.721100000000     0.0306678  
H39      H      0.955920000000     0.403380000000     0.654540000000     0.0318596  
H40      H      0.922380000000     0.367560000000     0.635000000000     0.0526224  
H41      H      0.643320000000     0.351330000000     0.487700000000     0.0543976  
H42      H      0.674550000000     0.313520000000     0.507920000000     0.0325792  
H43      H      0.687150000000     0.353720000000     0.619780000000     0.0308913  
H44      H      0.655170000000     0.392160000000     0.600180000000     0.0538954  
H45      H      0.644460000000     0.404890000000     0.473220000000     0.0538745  
H46      H      0.606530000000     0.436370000000     0.451510000000     0.0310264  
H47      H      0.563660000000     0.424270000000     0.561470000000     0.0326931  
H48      H      0.601210000000     0.393160000000     0.583890000000     0.0544962  
H49      H      0.777010000000     0.286520000000     0.863220000000     0.0529251  
H50      H      0.786820000000     0.288150000000     0.933060000000     0.0310057  
H51      H      0.763770000000     0.200430000000     0.944070000000     0.0321835  
H52      H      0.751740000000     0.198530000000     0.875290000000     0.0526943  
H53      H      0.763590000000     0.197890000000     0.810510000000     0.0527845  
H54      H      0.750770000000     0.198620000000     0.741880000000     0.0319986  
H55      H      0.728770000000     0.286750000000     0.750300000000     0.0310685  
H56      H      0.739390000000     0.286350000000     0.819890000000     0.0529672  
H57      H      0.799460000000     0.226400000000     0.309600000000     0.0535073  
H58      H      0.795900000000     0.227240000000     0.239080000000     0.0328728  
H59      H      0.711770000000     0.261210000000     0.245990000000     0.0303232  
H60      H      0.715020000000     0.261530000000     0.317540000000     0.052875   
H61      H      0.804990000000     0.255000000000     0.366660000000     0.0529897  
H62      H      0.807210000000     0.254560000000     0.438620000000     0.0300928  
H63      H      0.719160000000     0.232440000000     0.443100000000     0.0326526  
H64      H      0.716480000000     0.231760000000     0.372870000000     0.0532671  
H65      H      0.857500000000     0.358630000000     0.206490000000     0.0546616  
H66      H      0.827060000000     0.320940000000     0.183330000000     0.0326222  
H67      H      0.823460000000     0.359050000000     0.068840000000     0.0306583  
H68      H      0.854650000000     0.397240000000     0.091400000000     0.0540877  
H69      H      0.907780000000     0.392300000000     0.113520000000     0.0548059  
H70      H      0.945860000000     0.422500000000     0.135570000000     0.0325669  
H71      H      0.898730000000     0.444610000000     0.239060000000     0.0309363  
H72      H      0.860070000000     0.413580000000     0.217720000000     0.0540717  
H73      H      0.622840000000     0.351240000000     0.081010000000     0.0523656  
H74      H      0.659550000000     0.319610000000     0.104720000000     0.0308988  
H75      H      0.709020000000     0.336340000000     0.001680000000     0.0326139  
H76      H      0.672080000000     0.366030000000     0.975550000000     0.0521056  
H77      H      0.647720000000     0.407210000000     0.973860000000     0.0523637  
H78      H      0.609780000000     0.437690000000     0.950700000000     0.0308858  
H79      H      0.549670000000     0.390050000000     0.018080000000     0.0314763  
H80      H      0.586260000000     0.357890000000     0.039280000000     0.0526588  
H81      H      0.887300000000     0.666960000000     0.812530000000     0.0540111  
H82      H      0.850300000000     0.698930000000     0.836880000000     0.0315193  
H83      H      0.788040000000     0.653020000000     0.770690000000     0.0323488  
H84      H      0.824160000000     0.620790000000     0.746800000000     0.0538701  
H85      H      0.856680000000     0.583660000000     0.781370000000     0.0539169  
H86      H      0.891790000000     0.549690000000     0.759420000000     0.0321484  
H87      H      0.944980000000     0.617350000000     0.718620000000     0.0315751  
H88      H      0.910030000000     0.652210000000     0.741320000000     0.0540123  
H89      H      0.594600000000     0.635500000000     0.951490000000     0.0526654  
H90      H      0.563370000000     0.599040000000     0.977320000000     0.0308201  
H91      H      0.590030000000     0.542030000000     0.886260000000     0.0323715  
H92      H      0.619230000000     0.578240000000     0.857830000000     0.0523526  
H93      H      0.658940000000     0.604590000000     0.858210000000     0.0524284  
H94      H      0.688440000000     0.641940000000     0.831680000000     0.030807   
H95      H      0.632420000000     0.704870000000     0.878900000000     0.0312161  
H96      H      0.601130000000     0.668300000000     0.903050000000     0.0528184  
H97      H      0.749720000000     0.803250000000     0.620860000000     0.0526331  
H98      H      0.739180000000     0.801900000000     0.690100000000     0.0320986  
H99      H      0.718440000000     0.713450000000     0.682130000000     0.0313064  
H100     H      0.726600000000     0.714450000000     0.611900000000     0.0532716  
H101     H      0.761930000000     0.715000000000     0.565730000000     0.0533091  
H102     H      0.771030000000     0.714570000000     0.495760000000     0.0314203  
H103     H      0.747900000000     0.802440000000     0.487940000000     0.0319626  
H104     H      0.736410000000     0.803150000000     0.556990000000     0.0525646  
H105     H      0.696010000000     0.748520000000     0.113450000000     0.053023   
H106     H      0.693800000000     0.750180000000     0.185260000000     0.0300226  
H107     H      0.779760000000     0.721280000000     0.191440000000     0.0322693  
H108     H      0.782360000000     0.718260000000     0.121110000000     0.0534087  
H109     H      0.786830000000     0.747350000000     0.065810000000     0.0533121  
H110     H      0.790170000000     0.748640000000     0.994350000000     0.0303451  
H111     H      0.703170000000     0.723290000000     0.985710000000     0.0324282  
H112     H      0.699420000000     0.720700000000     0.056140000000     0.0532817  
H113     H      0.868310000000     0.589660000000     0.293020000000     0.0535421  
H114     H      0.899720000000     0.554680000000     0.265110000000     0.0320481  
H115     H      0.957170000000     0.620150000000     0.228680000000     0.0311791  
H116     H      0.926920000000     0.655810000000     0.258410000000     0.0527366  
H117     H      0.861040000000     0.621660000000     0.344980000000     0.0529529  
H118     H      0.824820000000     0.655270000000     0.366080000000     0.0305427  
H119     H      0.849960000000     0.712540000000     0.274380000000     0.032479   
H120     H      0.884510000000     0.679290000000     0.251310000000     0.0530355  
H121     H      0.608480000000     0.662620000000     0.373870000000     0.0542145  
H122     H      0.643250000000     0.696510000000     0.348680000000     0.0318399  
H123     H      0.710320000000     0.647840000000     0.400520000000     0.0321684  
H124     H      0.676220000000     0.613500000000     0.425040000000     0.0540619  
H125     H      0.591920000000     0.644380000000     0.446880000000     0.0541612  
H126     H      0.558100000000     0.608690000000     0.470050000000     0.0314273  
H127     H      0.606180000000     0.543320000000     0.413050000000     0.0322172  
H128     H      0.640360000000     0.578190000000     0.390570000000     0.0542857  
H129     H      0.579740000000     0.876450000000     0.356980000000     0.0529422  
H130     H      0.544750000000     0.909040000000     0.381940000000     0.0325632  
H131     H      0.599040000000     0.930920000000     0.478330000000     0.0310788  
H132     H      0.634150000000     0.897050000000     0.455300000000     0.0528463  
H133     H      0.668060000000     0.890280000000     0.406400000000     0.0531822  
H134     H      0.703840000000     0.857700000000     0.383370000000     0.0319849  
H135     H      0.639810000000     0.801950000000     0.338350000000     0.0313539  
H136     H      0.603180000000     0.833470000000     0.362930000000     0.0527546  
H137     H      0.624640000000     0.168750000000     0.491100000000     0.052663   
H138     H      0.657010000000     0.203220000000     0.516910000000     0.0323611  
H139     H      0.682310000000     0.145720000000     0.608140000000     0.030662   
H140     H      0.648180000000     0.110890000000     0.584460000000     0.0525843  
H141     H      0.638860000000     0.078260000000     0.535010000000     0.0527535  
H142     H      0.605760000000     0.043580000000     0.509790000000     0.0317268  
H143     H      0.551080000000     0.110060000000     0.469160000000     0.031529   
H144     H      0.582710000000     0.145370000000     0.496290000000     0.0526612  
H145     H      0.551360000000     0.001560000000     0.744590000000     0.052553   
H146     H      0.550520000000     0.014030000000     0.813190000000     0.0320658  
H147     H      0.462010000000     0.033560000000     0.805760000000     0.0312408  
H148     H      0.462500000000     0.023670000000     0.735990000000     0.053386   
H149     H      0.462760000000     0.987630000000     0.691240000000     0.0532871  
H150     H      0.461530000000     0.978090000000     0.621390000000     0.0310857  
H151     H      0.549260000000     0.000380000000     0.611590000000     0.0320539  
H152     H      0.550760000000     0.012530000000     0.680300000000     0.0525144  
H153     H      0.474700000000     0.052690000000     0.181300000000     0.0531612  
H154     H      0.474690000000     0.049220000000     0.110700000000     0.0325737  
H155     H      0.505380000000     0.963620000000     0.116730000000     0.0306334  
H156     H      0.506920000000     0.966780000000     0.188100000000     0.0530803  
H157     H      0.479210000000     0.968710000000     0.244090000000     0.0531079  
H158     H      0.481050000000     0.970990000000     0.314120000000     0.0326885  
H159     H      0.503320000000     0.059270000000     0.310040000000     0.0298526  
H160     H      0.502980000000     0.057360000000     0.238040000000     0.0529167  
H161     H      0.638950000000     0.932280000000     0.892170000000     0.0529194  
H162     H      0.606300000000     0.968640000000     0.913690000000     0.0318303  
H163     H      0.554960000000     0.905940000000     0.970930000000     0.031403   
H164     H      0.586340000000     0.868760000000     0.948080000000     0.0527217  
H165     H      0.644850000000     0.895250000000     0.847180000000     0.0528245  
H166     H      0.676260000000     0.857850000000     0.823990000000     0.0308548  
H167     H      0.659730000000     0.809740000000     0.928530000000     0.0326145  
H168     H      0.629860000000     0.846980000000     0.953430000000     0.0529609  
H169     H      0.642900000000     0.112290000000     0.971740000000     0.0530891  
H170     H      0.606480000000     0.079930000000     0.947930000000     0.0309292  
H171     H      0.555630000000     0.098360000000     0.049230000000     0.0328303  
H172     H      0.591720000000     0.129480000000     0.074500000000     0.0531245  
H173     H      0.614250000000     0.173430000000     0.067850000000     0.0529276  
H174     H      0.651390000000     0.204320000000     0.092670000000     0.0312965  
H175     H      0.714460000000     0.148970000000     0.044170000000     0.0322673  
H176     H      0.678160000000     0.117190000000     0.020490000000     0.0533571  
H177     H      0.088950000000     0.651020000000     0.738150000000     0.0527224  
H178     H      0.054900000000     0.616050000000     0.715170000000     0.0314387  
H179     H      0.102690000000     0.549760000000     0.770490000000     0.0325401  
H180     H      0.137620000000     0.583680000000     0.792230000000     0.0529123  
H181     H      0.147360000000     0.620000000000     0.836990000000     0.0525709  
H182     H      0.183410000000     0.653750000000     0.857890000000     0.0308658  
H183     H      0.169020000000     0.703140000000     0.753920000000     0.0329976  
H184     H      0.134270000000     0.669470000000     0.731370000000     0.0530009  
H185     H      0.362580000000     0.575700000000     0.895120000000     0.0538161  
H186     H      0.395640000000     0.539900000000     0.917850000000     0.0322433  
H187     H      0.449240000000     0.604550000000     0.966290000000     0.0317703  
H188     H      0.416450000000     0.641130000000     0.943130000000     0.053735   
H189     H      0.329340000000     0.612520000000     0.925300000000     0.0536327  
H190     H      0.296270000000     0.647670000000     0.900610000000     0.032271   
H191     H      0.364680000000     0.694630000000     0.849120000000     0.0319785  
H192     H      0.398480000000     0.659730000000     0.874170000000     0.0539424  
H193     H      0.337010000000     0.892300000000     0.909760000000     0.0540802  
H194     H      0.303130000000     0.856960000000     0.888740000000     0.0326342  
H195     H      0.370130000000     0.804730000000     0.843910000000     0.0313239  
H196     H      0.405050000000     0.840090000000     0.865740000000     0.0539357  
H197     H      0.420860000000     0.863570000000     0.937560000000     0.053842   
H198     H      0.451950000000     0.901610000000     0.961260000000     0.0314912  
H199     H      0.403910000000     0.962620000000     0.895620000000     0.032449   
H200     H      0.372580000000     0.925480000000     0.872400000000     0.0540256  
H201     H      0.306760000000     0.737990000000     0.554510000000     0.0529529  
H202     H      0.299860000000     0.736460000000     0.484980000000     0.0330598  
H203     H      0.209670000000     0.739810000000     0.499540000000     0.0301225  
H204     H      0.215870000000     0.739450000000     0.570840000000     0.0529669  
H205     H      0.230250000000     0.771570000000     0.618710000000     0.0533555  
H206     H      0.235810000000     0.777800000000     0.688200000000     0.0309174  
H207     H      0.311150000000     0.727150000000     0.687930000000     0.0291802  
H208     H      0.305540000000     0.719100000000     0.617190000000     0.0527287  
H209     H      0.249730000000     0.799290000000     0.120090000000     0.0527087  
H210     H      0.258440000000     0.798830000000     0.189600000000     0.031909   
H211     H      0.279550000000     0.710310000000     0.184930000000     0.031088   
H212     H      0.273260000000     0.710460000000     0.114150000000     0.0531659  
H213     H      0.266710000000     0.798900000000     0.058300000000     0.0530295  
H214     H      0.257470000000     0.798820000000     0.988930000000     0.0321208  
H215     H      0.233070000000     0.711150000000     0.993810000000     0.0308431  
H216     H      0.239870000000     0.711030000000     0.064510000000     0.0532102  
H217     H      0.115120000000     0.661770000000     0.316590000000     0.0544894  
H218     H      0.150900000000     0.694530000000     0.341810000000     0.0318404  
H219     H      0.215790000000     0.647620000000     0.281980000000     0.0320147  
H220     H      0.180730000000     0.614510000000     0.257210000000     0.0542522  
H221     H      0.096910000000     0.648290000000     0.243130000000     0.0543832  
H222     H      0.061800000000     0.614820000000     0.217940000000     0.0316184  
H223     H      0.109970000000     0.545290000000     0.264600000000     0.0319745  
H224     H      0.145410000000     0.578080000000     0.289240000000     0.0542801  
H225     H      0.368130000000     0.584010000000     0.390770000000     0.0529826  
H226     H      0.398460000000     0.547560000000     0.417450000000     0.0314845  
H227     H      0.457050000000     0.610610000000     0.457940000000     0.0313605  
H228     H      0.428440000000     0.647660000000     0.428860000000     0.0524202  
H229     H      0.389250000000     0.674860000000     0.430390000000     0.052493   
H230     H      0.358000000000     0.710220000000     0.404080000000     0.032356   
H231     H      0.327540000000     0.651460000000     0.317610000000     0.0306567  
H232     H      0.360610000000     0.615810000000     0.341200000000     0.0525739  
H233     H      0.350080000000     0.915250000000     0.470050000000     0.0541116  
H234     H      0.390710000000     0.943890000000     0.490850000000     0.0304724  
H235     H      0.431470000000     0.927360000000     0.380380000000     0.0318908  
H236     H      0.391340000000     0.899730000000     0.358840000000     0.0550132  
H237     H      0.335430000000     0.904070000000     0.345060000000     0.0542985  
H238     H      0.306270000000     0.864170000000     0.322650000000     0.0305106  
H239     H      0.323150000000     0.820260000000     0.430690000000     0.0322822  
H240     H      0.351350000000     0.859590000000     0.453860000000     0.0550816  
H241     H      0.139400000000     0.405610000000     0.729210000000     0.0537273  
H242     H      0.101400000000     0.438550000000     0.747750000000     0.030727   
H243     H      0.060680000000     0.423580000000     0.636920000000     0.0321892  
H244     H      0.098080000000     0.391610000000     0.617680000000     0.0540791  
H245     H      0.141380000000     0.350840000000     0.713450000000     0.0542399  
H246     H      0.173140000000     0.313720000000     0.691050000000     0.0327845  
H247     H      0.184100000000     0.356610000000     0.580850000000     0.0310882  
H248     H      0.151830000000     0.394020000000     0.602460000000     0.0537962  
H249     H      0.356890000000     0.412410000000     0.486520000000     0.0521426  
H250     H      0.393420000000     0.443520000000     0.461230000000     0.0311736  
H251     H      0.457240000000     0.392620000000     0.516300000000     0.0317518  
H252     H      0.421780000000     0.359730000000     0.539350000000     0.052548   
H253     H      0.387860000000     0.350270000000     0.584130000000     0.0523512  
H254     H      0.352200000000     0.317830000000     0.608990000000     0.0310934  
H255     H      0.296300000000     0.341520000000     0.515360000000     0.0325334  
H256     H      0.331900000000     0.372050000000     0.487830000000     0.0522408  
H257     H      0.331350000000     0.115210000000     0.523700000000     0.0542735  
H258     H      0.295640000000     0.148060000000     0.546890000000     0.0321664  
H259     H      0.360110000000     0.203270000000     0.592110000000     0.031775   
H260     H      0.396710000000     0.170570000000     0.568240000000     0.0542467  
H261     H      0.412770000000     0.149370000000     0.494840000000     0.0540719  
H262     H      0.445960000000     0.113520000000     0.469910000000     0.0312828  
H263     H      0.402640000000     0.049240000000     0.536010000000     0.0328118  
H264     H      0.369420000000     0.084090000000     0.560410000000     0.0542939  
H265     H      0.297320000000     0.263230000000     0.823910000000     0.0539258  
H266     H      0.301160000000     0.262300000000     0.751770000000     0.030201   
H267     H      0.221670000000     0.218550000000     0.745060000000     0.0321338  
H268     H      0.217300000000     0.219130000000     0.815410000000     0.0542448  
H269     H      0.262220000000     0.288660000000     0.872200000000     0.0539862  
H270     H      0.250860000000     0.292680000000     0.941840000000     0.031966   
H271     H      0.227700000000     0.204590000000     0.944980000000     0.0315541  
H272     H      0.239040000000     0.199960000000     0.875800000000     0.0533728  
H273     H      0.295190000000     0.235740000000     0.323620000000     0.054056   
H274     H      0.298650000000     0.237580000000     0.251450000000     0.0302382  
H275     H      0.219630000000     0.282360000000     0.246750000000     0.0317389  
H276     H      0.215670000000     0.280870000000     0.317110000000     0.0540542  
H277     H      0.239680000000     0.300260000000     0.376380000000     0.0534842  
H278     H      0.229690000000     0.296610000000     0.445960000000     0.0316598  
H279     H      0.249340000000     0.207650000000     0.443430000000     0.0320617  
H280     H      0.259360000000     0.210730000000     0.373160000000     0.0541489  
H281     H      0.119980000000     0.340970000000     0.185590000000     0.0547343  
H282     H      0.150700000000     0.302620000000     0.164880000000     0.0324375  
H283     H      0.179260000000     0.352190000000     0.066670000000     0.0310622  
H284     H      0.147800000000     0.390880000000     0.086420000000     0.0542948  
H285     H      0.130230000000     0.394660000000     0.210380000000     0.0542983  
H286     H      0.097130000000     0.431370000000     0.232220000000     0.0306323  
H287     H      0.058430000000     0.431660000000     0.118060000000     0.0327432  
H288     H      0.091400000000     0.395800000000     0.095520000000     0.0548031  
H289     H      0.361040000000     0.394560000000     0.978110000000     0.0530476  
H290     H      0.396990000000     0.427260000000     0.954020000000     0.030745   
H291     H      0.447300000000     0.411360000000     0.056690000000     0.0327681  
H292     H      0.411560000000     0.380060000000     0.082330000000     0.0533108  
H293     H      0.390620000000     0.335530000000     0.075950000000     0.0530927  
H294     H      0.354340000000     0.303460000000     0.099930000000     0.0315605  
H295     H      0.289970000000     0.356070000000     0.048850000000     0.0319771  
H296     H      0.325440000000     0.389190000000     0.026130000000     0.0532336  
H297     H      0.354360000000     0.095040000000     0.982090000000     0.0526876  
H298     H      0.391180000000     0.064910000000     0.955120000000     0.0306058  
H299     H      0.454770000000     0.120870000000     0.000660000000     0.0315946  
H300     H      0.418830000000     0.152530000000     0.025450000000     0.0531135  
H301     H      0.386930000000     0.157560000000     0.075980000000     0.0528653  
H302     H      0.351140000000     0.188590000000     0.104010000000     0.0307094  
H303     H      0.293380000000     0.165170000000     0.012260000000     0.0325869  
H304     H      0.328900000000     0.136030000000     0.981980000000     0.0525665  
H305     H      0.864200000000     0.077630000000     0.642340000000     0.0534776  
H306     H      0.896490000000     0.042730000000     0.668570000000     0.032361   
H307     H      0.947560000000     0.108600000000     0.719130000000     0.0318129  
H308     H      0.915050000000     0.144500000000     0.692930000000     0.0538779  
H309     H      0.897160000000     0.164200000000     0.625050000000     0.0538674  
H310     H      0.861880000000     0.197620000000     0.599360000000     0.031787   
H311     H      0.795250000000     0.144790000000     0.644030000000     0.0324219  
H312     H      0.829490000000     0.111630000000     0.669670000000     0.0535296  
H313     H      0.910130000000     0.876590000000     0.831800000000     0.0527323  
H314     H      0.946420000000     0.908290000000     0.808330000000     0.0325595  
H315     H      0.895370000000     0.930440000000     0.708740000000     0.0309887  
H316     H      0.859100000000     0.897290000000     0.730040000000     0.0526786  
H317     H      0.823400000000     0.889470000000     0.774850000000     0.0527953  
H318     H      0.787050000000     0.856540000000     0.794950000000     0.0317876  
H319     H      0.849360000000     0.802520000000     0.847860000000     0.0312875  
H320     H      0.886700000000     0.834170000000     0.826010000000     0.0525811  
H321     H      0.100850000000     0.887050000000     0.827350000000     0.0545087  
H322     H      0.061440000000     0.916100000000     0.806090000000     0.0317856  
H323     H      0.105470000000     0.937180000000     0.699640000000     0.0307394  
H324     H      0.145220000000     0.907230000000     0.720010000000     0.0540598  
H325     H      0.145000000000     0.850350000000     0.733440000000     0.0544928  
H326     H      0.178060000000     0.814090000000     0.753840000000     0.0318785  
H327     H      0.191430000000     0.857020000000     0.863570000000     0.0303296  
H328     H      0.157270000000     0.893630000000     0.843980000000     0.0540963  
H329     H      0.097330000000     0.137300000000     0.711580000000     0.0523312  
H330     H      0.063930000000     0.101850000000     0.734680000000     0.031238   
H331     H      0.084910000000     0.048230000000     0.637180000000     0.0326848  
H332     H      0.116510000000     0.083720000000     0.611580000000     0.0522623  
H333     H      0.158250000000     0.106740000000     0.612740000000     0.0521401  
H334     H      0.190820000000     0.142810000000     0.589540000000     0.0309506  
H335     H      0.142200000000     0.207210000000     0.647400000000     0.0319123  
H336     H      0.108060000000     0.172330000000     0.668550000000     0.0525321  
H337     H      0.036330000000     0.976960000000     0.499260000000     0.0529932  
H338     H      0.036190000000     0.968470000000     0.569390000000     0.0306546  
H339     H      0.949110000000     0.993810000000     0.575910000000     0.0318815  
H340     H      0.949050000000     0.004850000000     0.506760000000     0.0528314  
H341     H      0.949520000000     0.992900000000     0.442440000000     0.0525893  
H342     H      0.952330000000     0.004750000000     0.373650000000     0.0320179  
H343     H      0.040910000000     0.022900000000     0.385180000000     0.0308589  
H344     H      0.038480000000     0.013560000000     0.455010000000     0.053166   
H345     H      0.984430000000     0.048940000000     0.950120000000     0.052754   
H346     H      0.987240000000     0.052190000000     0.878460000000     0.0296638  
H347     H      0.019800000000     0.967270000000     0.873870000000     0.0319438  
H348     H      0.018920000000     0.963840000000     0.943950000000     0.052799   
H349     H      0.991130000000     0.957330000000     0.998590000000     0.0525916  
H350     H      0.993610000000     0.953170000000     0.069970000000     0.0300687  
H351     H      0.009370000000     0.042680000000     0.078550000000     0.0330518  
H352     H      0.008900000000     0.047250000000     0.008560000000     0.0530449  
H353     H      0.937350000000     0.143970000000     0.144010000000     0.0543533  
H354     H      0.969930000000     0.110230000000     0.172920000000     0.0321513  
H355     H      0.900630000000     0.065020000000     0.225260000000     0.0314795  
H356     H      0.867270000000     0.098690000000     0.196260000000     0.0544425  
H357     H      0.852260000000     0.111680000000     0.123710000000     0.0545814  
H358     H      0.819190000000     0.145690000000     0.094860000000     0.0315107  
H359     H      0.869550000000     0.214640000000     0.138620000000     0.0321492  
H360     H      0.902740000000     0.181390000000     0.167310000000     0.0542826  
H361     H      0.861920000000     0.847320000000     0.225260000000     0.05339    
H362     H      0.827450000000     0.812860000000     0.246450000000     0.0326944  
H363     H      0.818150000000     0.855860000000     0.356860000000     0.0309603  
H364     H      0.853660000000     0.890540000000     0.336860000000     0.0532021  
H365     H      0.862100000000     0.929090000000     0.292740000000     0.0533598  
H366     H      0.898230000000     0.962630000000     0.273640000000     0.0323629  
H367     H      0.944940000000     0.896520000000     0.215980000000     0.0313703  
H368     H      0.909390000000     0.862020000000     0.235830000000     0.0532107  
H369     H      0.095070000000     0.856090000000     0.228460000000     0.0542929  
H370     H      0.062920000000     0.894320000000     0.208470000000     0.0310748  
H371     H      0.083690000000     0.940450000000     0.313300000000     0.0328349  
H372     H      0.114810000000     0.902350000000     0.334360000000     0.0549066  
H373     H      0.154910000000     0.863480000000     0.243030000000     0.0550311  
H374     H      0.193110000000     0.832260000000     0.262470000000     0.0326299  
H375     H      0.147940000000     0.808840000000     0.366940000000     0.0306953  
H376     H      0.109390000000     0.841320000000     0.348560000000     0.0542732  
H377     H      0.167710000000     0.100970000000     0.111520000000     0.0540346  
H378     H      0.193360000000     0.142060000000     0.086630000000     0.0314826  
H379     H      0.174010000000     0.187920000000     0.192310000000     0.0326223  
H380     H      0.148430000000     0.147220000000     0.217820000000     0.0548158  
H381     H      0.151920000000     0.092640000000     0.238010000000     0.0540845  
H382     H      0.113450000000     0.060470000000     0.257920000000     0.0299672  
H383     H      0.076540000000     0.068300000000     0.143180000000     0.0319773  
H384     H      0.114120000000     0.099290000000     0.122710000000     0.0549217  
N1       N      0.003870000000     0.503300000000     0.361510000000    -0.182715   
N2       N      0.003840000000     0.519660000000     0.568180000000    -0.183241   
N3       N      0.990980000000     0.528430000000     0.067990000000    -0.184229   
N4       N      0.994020000000     0.506140000000     0.862910000000    -0.182275   
N5       N      0.494100000000     0.487760000000     0.818690000000    -0.182611   
N6       N      0.488710000000     0.512190000000     0.613680000000    -0.18343    
N7       N      0.503920000000     0.491290000000     0.320390000000    -0.182385   
N8       N      0.510090000000     0.507060000000     0.113410000000    -0.183367   
N9       N      0.824500000000     0.324500000000     0.625580000000    -0.181564   
N10      N      0.926430000000     0.427720000000     0.689030000000    -0.182705   
N11      N      0.683020000000     0.330680000000     0.565560000000    -0.18428    
N12      N      0.582100000000     0.432320000000     0.504570000000    -0.183905   
N13      N      0.775230000000     0.244700000000     0.943950000000    -0.183225   
N14      N      0.739700000000     0.242960000000     0.740730000000    -0.183584   
N15      N      0.753650000000     0.244730000000     0.237160000000    -0.183119   
N16      N      0.763340000000     0.244190000000     0.446260000000    -0.183588   
N17      N      0.823610000000     0.336860000000     0.124030000000    -0.184719   
N18      N      0.925060000000     0.436000000000     0.188910000000    -0.184868   
N19      N      0.687000000000     0.325490000000     0.055070000000    -0.18164    
N20      N      0.577100000000     0.416630000000     0.983460000000    -0.183272   
N21      N      0.816400000000     0.678500000000     0.805600000000    -0.181155   
N22      N      0.921210000000     0.580930000000     0.737610000000    -0.181104   
N23      N      0.574160000000     0.567940000000     0.933660000000    -0.183364   
N24      N      0.663030000000     0.676060000000     0.854310000000    -0.184342   
N25      N      0.728840000000     0.757380000000     0.691470000000    -0.183226   
N26      N      0.759620000000     0.758280000000     0.486540000000    -0.183404   
N27      N      0.736800000000     0.736850000000     0.193530000000    -0.183839   
N28      N      0.746870000000     0.736730000000     0.984720000000    -0.183422   
N29      N      0.930930000000     0.584820000000     0.245210000000    -0.184209   
N30      N      0.834150000000     0.685970000000     0.321220000000    -0.185      
N31      N      0.679380000000     0.674870000000     0.372880000000    -0.181119   
N32      N      0.579390000000     0.573390000000     0.442970000000    -0.181685   
N33      N      0.569440000000     0.922780000000     0.431730000000    -0.183374   
N34      N      0.674500000000     0.827110000000     0.359740000000    -0.182582   
N35      N      0.672430000000     0.176940000000     0.564230000000    -0.183614   
N36      N      0.575770000000     0.074210000000     0.488010000000    -0.182696   
N37      N      0.506010000000     0.023860000000     0.814810000000    -0.183481   
N38      N      0.505050000000     0.989240000000     0.611170000000    -0.183729   
N39      N      0.490470000000     0.006240000000     0.108390000000    -0.183304   
N40      N      0.492910000000     0.015280000000     0.317450000000    -0.183805   
N41      N      0.577940000000     0.939970000000     0.943410000000    -0.182808   
N42      N      0.670250000000     0.830970000000     0.874310000000    -0.183675   
N43      N      0.578400000000     0.086640000000     0.996700000000    -0.183805   
N44      N      0.685640000000     0.179300000000     0.069670000000    -0.182795   
N45      N      0.075950000000     0.580360000000     0.741490000000    -0.18175    
N46      N      0.179020000000     0.680940000000     0.807580000000    -0.182581   
N47      N      0.425120000000     0.569490000000     0.943490000000    -0.181221   
N48      N      0.327930000000     0.673930000000     0.873100000000    -0.180788   
N49      N      0.334030000000     0.827990000000     0.864880000000    -0.180594   
N50      N      0.430370000000     0.935000000000     0.930260000000    -0.180702   
N51      N      0.254150000000     0.739100000000     0.486890000000    -0.183751   
N52      N      0.273410000000     0.752080000000     0.693280000000    -0.184637   
N53      N      0.269010000000     0.754380000000     0.192590000000    -0.183973   
N54      N      0.245130000000     0.754820000000     0.986050000000    -0.184128   
N55      N      0.185920000000     0.673760000000     0.313350000000    -0.182598   
N56      N      0.083050000000     0.577630000000     0.239880000000    -0.182856   
N57      N      0.430180000000     0.576340000000     0.439240000000    -0.183099   
N58      N      0.339850000000     0.683250000000     0.359510000000    -0.183744   
N59      N      0.414190000000     0.937380000000     0.437470000000    -0.185462   
N60      N      0.313300000000     0.839050000000     0.374460000000    -0.185472   
N61      N      0.078210000000     0.433550000000     0.693880000000    -0.183265   
N62      N      0.180690000000     0.332170000000     0.634000000000    -0.182896   
N63      N      0.427960000000     0.420820000000     0.487630000000    -0.182387   
N64      N      0.321610000000     0.327100000000     0.564120000000    -0.181556   
N65      N      0.325160000000     0.178280000000     0.571060000000    -0.18143    
N66      N      0.426880000000     0.078710000000     0.501030000000    -0.18154    
N67      N      0.261360000000     0.241210000000     0.743190000000    -0.183391   
N68      N      0.238590000000     0.248910000000     0.948720000000    -0.182928   
N69      N      0.259110000000     0.259370000000     0.243830000000    -0.183814   
N70      N      0.238990000000     0.251920000000     0.450050000000    -0.182656   
N71      N      0.167700000000     0.324770000000     0.114620000000    -0.184121   
N72      N      0.075160000000     0.433960000000     0.177000000000    -0.184226   
N73      N      0.424780000000     0.421760000000     0.003420000000    -0.183979   
N74      N      0.319560000000     0.327010000000     0.075440000000    -0.183453   
N75      N      0.425560000000     0.090190000000     0.977080000000    -0.184783   
N76      N      0.319710000000     0.179330000000     0.060240000000    -0.184022   
N77      N      0.924630000000     0.072980000000     0.695720000000    -0.181309   
N78      N      0.825930000000     0.173900000000     0.619940000000    -0.181042   
N79      N      0.923530000000     0.921980000000     0.756910000000    -0.18316    
N80      N      0.815510000000     0.826810000000     0.822360000000    -0.182472   
N81      N      0.080460000000     0.928700000000     0.751120000000    -0.184477   
N82      N      0.187020000000     0.832730000000     0.810460000000    -0.18485    
N83      N      0.071890000000     0.072340000000     0.687870000000    -0.181184   
N84      N      0.169340000000     0.177590000000     0.617390000000    -0.182164   
N85      N      0.992960000000     0.981370000000     0.577960000000    -0.184217   
N86      N      0.997030000000     0.013760000000     0.374130000000    -0.184061   
N87      N      0.002920000000     0.009840000000     0.870880000000    -0.184238   
N88      N      0.001630000000     0.997440000000     0.079640000000    -0.183919   
N89      N      0.937640000000     0.084800000000     0.200570000000    -0.184449   
N90      N      0.841600000000     0.182610000000     0.115340000000    -0.184378   
N91      N      0.820340000000     0.831650000000     0.303430000000    -0.184072   
N92      N      0.924520000000     0.932020000000     0.243790000000    -0.18335    
N93      N      0.071130000000     0.920400000000     0.259040000000    -0.181022   
N94      N      0.173530000000     0.818310000000     0.316430000000    -0.18154    
N95      N      0.185120000000     0.168190000000     0.137240000000    -0.184463   
N96      N      0.091870000000     0.062720000000     0.202470000000    -0.185532   
O1       O      0.004870000000     0.001840000000     0.227870000000    -0.372776   
O2       O      0.068410000000     0.032560000000     0.245310000000    -0.300687   
O3       O      0.004130000000     0.018990000000     0.139010000000    -0.315524   
O4       O      0.036960000000     0.939840000000     0.218160000000    -0.292815   
O5       O      0.046770000000     0.048160000000     0.192030000000    -0.317178   
O6       O      0.054880000000     0.965870000000     0.266810000000    -0.300258   
O7       O      0.003070000000     0.971990000000     0.138390000000    -0.295081   
O8       O      0.944410000000     0.975840000000     0.250960000000    -0.305818   
O9       O      0.981080000000     0.063740000000     0.198120000000    -0.311094   
O10      O      0.967360000000     0.943820000000     0.215240000000    -0.296551   
O11      O      0.947660000000     0.043210000000     0.233520000000    -0.304477   
O12      O      0.977180000000     0.013450000000     0.312730000000    -0.304861   
O13      O      0.024070000000     0.013630000000     0.318280000000    -0.303435   
O14      O      0.998760000000     0.997450000000     0.723860000000    -0.367905   
O15      O      0.059680000000     0.961890000000     0.710310000000    -0.302237   
O16      O      0.002480000000     0.985630000000     0.813650000000    -0.315706   
O17      O      0.035220000000     0.057720000000     0.728440000000    -0.292745   
O18      O      0.035700000000     0.945360000000     0.761110000000    -0.311949   
O19      O      0.052380000000     0.027940000000     0.683690000000    -0.301158   
O20      O      0.999460000000     0.032500000000     0.810090000000    -0.293447   
O21      O      0.940600000000     0.027100000000     0.695720000000    -0.301783   
O22      O      0.967040000000     0.942630000000     0.764510000000    -0.308392   
O23      O      0.965480000000     0.059380000000     0.728490000000    -0.29351    
O24      O      0.939120000000     0.958690000000     0.717330000000    -0.301144   
O25      O      0.971910000000     0.984920000000     0.638390000000    -0.304607   
O26      O      0.018700000000     0.981100000000     0.634920000000    -0.304383   
O27      O      0.245970000000     0.251560000000     0.096560000000    -0.375015   
O28      O      0.211880000000     0.190460000000     0.089850000000    -0.304863   
O29      O      0.234380000000     0.260780000000     0.186850000000    -0.311959   
O30      O      0.305990000000     0.215590000000     0.101870000000    -0.29745    
O31      O      0.199310000000     0.214420000000     0.143020000000    -0.309754   
O32      O      0.275150000000     0.197740000000     0.059380000000    -0.308005   
O33      O      0.279920000000     0.249750000000     0.183330000000    -0.295719   
O34      O      0.274720000000     0.309570000000     0.069370000000    -0.304531   
O35      O      0.188800000000     0.282290000000     0.128190000000    -0.31065    
O36      O      0.305840000000     0.285070000000     0.104830000000    -0.297598   
O37      O      0.206220000000     0.308360000000     0.079730000000    -0.303403   
O38      O      0.239950000000     0.273830000000     0.006750000000    -0.302825   
O39      O      0.230040000000     0.227810000000     0.008340000000    -0.303276   
O40      O      0.248500000000     0.251530000000     0.596890000000    -0.368579   
O41      O      0.189630000000     0.221090000000     0.627310000000    -0.306309   
O42      O      0.240200000000     0.227480000000     0.508600000000    -0.300157   
O43      O      0.210870000000     0.311770000000     0.588450000000    -0.3003     
O44      O      0.210250000000     0.191800000000     0.585280000000    -0.298546   
O45      O      0.200120000000     0.288110000000     0.642570000000    -0.307714   
O46      O      0.233700000000     0.274240000000     0.509400000000    -0.302939   
O47      O      0.307910000000     0.289400000000     0.603520000000    -0.293959   
O48      O      0.279250000000     0.193770000000     0.568770000000    -0.301091   
O49      O      0.277180000000     0.307750000000     0.561180000000    -0.301825   
O50      O      0.310550000000     0.219610000000     0.601940000000    -0.293631   
O51      O      0.282460000000     0.251470000000     0.683050000000    -0.294264   
O52      O      0.236450000000     0.241990000000     0.686370000000    -0.310971   
O53      O      0.256280000000     0.751350000000     0.339540000000    -0.372269   
O54      O      0.193640000000     0.782820000000     0.354820000000    -0.292742   
O55      O      0.284010000000     0.816350000000     0.330110000000    -0.303167   
O56      O      0.274240000000     0.744760000000     0.427090000000    -0.316441   
O57      O      0.218800000000     0.802650000000     0.307020000000    -0.303779   
O58      O      0.227450000000     0.744610000000     0.429610000000    -0.294223   
O59      O      0.301930000000     0.792340000000     0.380060000000    -0.31493    
O60      O      0.298780000000     0.695120000000     0.326500000000    -0.302034   
O61      O      0.265730000000     0.776550000000     0.252240000000    -0.305869   
O62      O      0.318440000000     0.726420000000     0.366420000000    -0.310652   
O63      O      0.269890000000     0.729580000000     0.250670000000    -0.302281   
O64      O      0.230290000000     0.692900000000     0.308400000000    -0.301569   
O65      O      0.199080000000     0.713700000000     0.348110000000    -0.296157   
O66      O      0.258180000000     0.752700000000     0.839790000000    -0.36689    
O67      O      0.207390000000     0.789620000000     0.799720000000    -0.314431   
O68      O      0.248240000000     0.777120000000     0.926510000000    -0.305019   
O69      O      0.214910000000     0.695700000000     0.849420000000    -0.298541   
O70      O      0.221100000000     0.813880000000     0.851750000000    -0.302299   
O71      O      0.203960000000     0.721920000000     0.797760000000    -0.309004   
O72      O      0.242240000000     0.730310000000     0.927800000000    -0.300504   
O73      O      0.317180000000     0.715200000000     0.839370000000    -0.293751   
O74      O      0.288990000000     0.810310000000     0.868480000000    -0.301763   
O75      O      0.283260000000     0.693210000000     0.873050000000    -0.297938   
O76      O      0.320880000000     0.785610000000     0.834820000000    -0.291292   
O77      O      0.294620000000     0.747940000000     0.754960000000    -0.293515   
O78      O      0.248550000000     0.755890000000     0.749400000000    -0.317165   
O79      O      0.501400000000     0.013780000000     0.961240000000    -0.3701     
O80      O      0.468110000000     0.951680000000     0.967240000000    -0.29386    
O81      O      0.440970000000     0.049050000000     0.947010000000    -0.302675   
O82      O      0.491210000000     0.029710000000     0.050230000000    -0.311365   
O83      O      0.446240000000     0.980980000000     0.926140000000    -0.299761   
O84      O      0.497880000000     0.983050000000     0.048940000000    -0.295625   
O85      O      0.469900000000     0.072710000000     0.986220000000    -0.311618   
O86      O      0.561370000000     0.052930000000     0.953110000000    -0.300412   
O87      O      0.480510000000     0.025010000000     0.872100000000    -0.301322   
O88      O      0.535200000000     0.065610000000     0.003860000000    -0.310828   
O89      O      0.527570000000     0.024090000000     0.875130000000    -0.302887   
O90      O      0.560360000000     0.984870000000     0.935780000000    -0.30292    
O91      O      0.536810000000     0.954680000000     0.973850000000    -0.297385   
O92      O      0.498310000000     0.002160000000     0.464700000000    -0.369236   
O93      O      0.464690000000     0.064290000000     0.462370000000    -0.293506   
O94      O      0.436890000000     0.967960000000     0.480020000000    -0.303719   
O95      O      0.494660000000     0.990830000000     0.374560000000    -0.316266   
O96      O      0.444870000000     0.033640000000     0.503630000000    -0.301943   
O97      O      0.496530000000     0.037690000000     0.378460000000    -0.293835   
O98      O      0.459160000000     0.952950000000     0.426880000000    -0.314437   
O99      O      0.555920000000     0.960280000000     0.471360000000    -0.301542   
O100     O      0.478660000000     0.988070000000     0.554720000000    -0.302811   
O101     O      0.527170000000     0.945800000000     0.424210000000    -0.310065   
O102     O      0.525530000000     0.990290000000     0.550130000000    -0.303626   
O103     O      0.558730000000     0.028790000000     0.489660000000    -0.302186   
O104     O      0.533750000000     0.061680000000     0.458100000000    -0.297091   
O105     O      0.750100000000     0.752600000000     0.339740000000    -0.370907   
O106     O      0.797090000000     0.789960000000     0.292700000000    -0.31229    
O107     O      0.720050000000     0.811110000000     0.364240000000    -0.303078   
O108     O      0.715170000000     0.745740000000     0.253880000000    -0.295007   
O109     O      0.788370000000     0.812880000000     0.348000000000    -0.301334   
O110     O      0.761850000000     0.743010000000     0.249500000000    -0.315283   
O111     O      0.688920000000     0.785080000000     0.330990000000    -0.296381   
O112     O      0.724310000000     0.693510000000     0.373890000000    -0.298658   
O113     O      0.759260000000     0.779730000000     0.426020000000    -0.302354   
O114     O      0.691270000000     0.715570000000     0.338690000000    -0.295001   
O115     O      0.762750000000     0.732730000000     0.429340000000    -0.301428   
O116     O      0.793690000000     0.697350000000     0.356220000000    -0.301619   
O117     O      0.808030000000     0.725330000000     0.308090000000    -0.315433   
O118     O      0.739970000000     0.751430000000     0.838100000000    -0.369469   
O119     O      0.703740000000     0.691770000000     0.823790000000    -0.303001   
O120     O      0.723730000000     0.740670000000     0.926580000000    -0.311068   
O121     O      0.800920000000     0.716450000000     0.843250000000    -0.294185   
O122     O      0.680080000000     0.720890000000     0.862770000000    -0.309442   
O123     O      0.771090000000     0.695820000000     0.801730000000    -0.300476   
O124     O      0.770520000000     0.745210000000     0.925860000000    -0.294582   
O125     O      0.770620000000     0.809790000000     0.813700000000    -0.302716   
O126     O      0.689410000000     0.786750000000     0.881250000000    -0.310228   
O127     O      0.800050000000     0.785410000000     0.851880000000    -0.296106   
O128     O      0.702920000000     0.812590000000     0.830460000000    -0.300849   
O129     O      0.730410000000     0.778520000000     0.752120000000    -0.302862   
O130     O      0.727590000000     0.731430000000     0.748520000000    -0.301106   
O131     O      0.761510000000     0.252920000000     0.089610000000    -0.375695   
O132     O      0.730950000000     0.254110000000     0.177790000000    -0.295156   
O133     O      0.822700000000     0.227180000000     0.116460000000    -0.310474   
O134     O      0.731470000000     0.194440000000     0.065970000000    -0.304511   
O135     O      0.776800000000     0.243900000000     0.178780000000    -0.312177   
O136     O      0.700750000000     0.220790000000     0.099370000000    -0.296279   
O137     O      0.799260000000     0.193500000000     0.085130000000    -0.3042     
O138     O      0.777540000000     0.271590000000     0.000100000000    -0.301252   
O139     O      0.806540000000     0.292190000000     0.133040000000    -0.313295   
O140     O      0.772250000000     0.224820000000     0.005280000000    -0.303527   
O141     O      0.796610000000     0.313860000000     0.077060000000    -0.301144   
O142     O      0.731110000000     0.305770000000     0.049310000000    -0.301224   
O143     O      0.703050000000     0.290530000000     0.097420000000    -0.29417    
O144     O      0.751340000000     0.248940000000     0.593940000000    -0.369135   
O145     O      0.780250000000     0.190050000000     0.619860000000    -0.301376   
O146     O      0.785870000000     0.248820000000     0.507010000000    -0.293663   
O147     O      0.694470000000     0.219750000000     0.557650000000    -0.312115   
O148     O      0.812880000000     0.215880000000     0.589130000000    -0.292472   
O149     O      0.711260000000     0.189800000000     0.601830000000    -0.300658   
O150     O      0.739160000000     0.246320000000     0.503570000000    -0.315556   
O151     O      0.714290000000     0.309150000000     0.608550000000    -0.301402   
O152     O      0.810580000000     0.286410000000     0.587050000000    -0.29333    
O153     O      0.702420000000     0.287220000000     0.553580000000    -0.312633   
O154     O      0.780970000000     0.303680000000     0.631920000000    -0.30135    
O155     O      0.737090000000     0.268830000000     0.683820000000    -0.302827   
O156     O      0.740700000000     0.221900000000     0.679970000000    -0.303026   
O157     O      0.500670000000     0.493870000000     0.966080000000    -0.368578   
O158     O      0.467830000000     0.443060000000     0.010130000000    -0.311016   
O159     O      0.441530000000     0.523730000000     0.940040000000    -0.299782   
O160     O      0.502390000000     0.528090000000     0.052540000000    -0.295276   
O161     O      0.441200000000     0.455360000000     0.959420000000    -0.301259   
O162     O      0.510110000000     0.481730000000     0.056710000000    -0.310682   
O163     O      0.466740000000     0.555300000000     0.973580000000    -0.29456    
O164     O      0.555790000000     0.523230000000     0.930640000000    -0.305892   
O165     O      0.473230000000     0.483760000000     0.879380000000    -0.300987   
O166     O      0.536210000000     0.554010000000     0.971940000000    -0.296407   
O167     O      0.520180000000     0.484440000000     0.875460000000    -0.30173    
O168     O      0.559930000000     0.455410000000     0.949010000000    -0.299847   
O169     O      0.534320000000     0.436870000000     0.996920000000    -0.309195   
O170     O      0.502080000000     0.499840000000     0.467600000000    -0.369753   
O171     O      0.500150000000     0.533370000000     0.554050000000    -0.294836   
O172     O      0.471790000000     0.440280000000     0.496840000000    -0.306298   
O173     O      0.444580000000     0.530040000000     0.437990000000    -0.302391   
O174     O      0.490880000000     0.487180000000     0.556920000000    -0.31024    
O175     O      0.470130000000     0.561130000000     0.472020000000    -0.297507   
O176     O      0.442670000000     0.461470000000     0.455230000000    -0.299197   
O177     O      0.526130000000     0.487780000000     0.380110000000    -0.301934   
O178     O      0.538220000000     0.451730000000     0.513510000000    -0.308806   
O179     O      0.479160000000     0.491160000000     0.378670000000    -0.299616   
O180     O      0.561540000000     0.462150000000     0.458970000000    -0.302682   
O181     O      0.560230000000     0.528890000000     0.437220000000    -0.301572   
O182     O      0.538820000000     0.559890000000     0.476270000000    -0.295485   
O183     O      0.002660000000     0.509440000000     0.213770000000    -0.373055   
O184     O      0.035010000000     0.459780000000     0.166790000000    -0.311625   
O185     O      0.062800000000     0.533540000000     0.242430000000    -0.302047   
O186     O      0.001880000000     0.547450000000     0.129280000000    -0.295911   
O187     O      0.058010000000     0.465790000000     0.222900000000    -0.301741   
O188     O      0.993550000000     0.501460000000     0.122760000000    -0.315067   
O189     O      0.040730000000     0.567580000000     0.209100000000    -0.298064   
O190     O      0.945620000000     0.538810000000     0.243610000000    -0.306017   
O191     O      0.026600000000     0.496880000000     0.302370000000    -0.300291   
O192     O      0.971810000000     0.571310000000     0.213260000000    -0.298593   
O193     O      0.979850000000     0.501780000000     0.302940000000    -0.302605   
O194     O      0.943540000000     0.471090000000     0.228760000000    -0.303289   
O195     O      0.967770000000     0.456680000000     0.176980000000    -0.31371    
O196     O      0.998990000000     0.507160000000     0.715620000000    -0.365413   
O197     O      0.034320000000     0.567820000000     0.709890000000    -0.294062   
O198     O      0.019680000000     0.500980000000     0.806040000000    -0.301583   
O199     O      0.938980000000     0.535730000000     0.740520000000    -0.300536   
O200     O      0.056840000000     0.535900000000     0.746410000000    -0.301934   
O201     O      0.964040000000     0.568510000000     0.709050000000    -0.29349    
O202     O      0.972670000000     0.499330000000     0.802940000000    -0.300121   
O203     O      0.968650000000     0.450290000000     0.678630000000    -0.306992   
O204     O      0.057870000000     0.467450000000     0.734530000000    -0.298885   
O205     O      0.940440000000     0.466920000000     0.725180000000    -0.29955    
O206     O      0.036200000000     0.455110000000     0.679660000000    -0.311434   
O207     O      0.002090000000     0.494710000000     0.625100000000    -0.311949   
O208     O      0.999730000000     0.541650000000     0.629260000000    -0.293015   
Zn1      Zn     0.037350000000     0.004600000000     0.263460000000     0.451674   
Zn2      Zn     0.008810000000     0.032480000000     0.192180000000     0.477587   
Zn3      Zn     0.003620000000     0.965100000000     0.199290000000     0.439605   
Zn4      Zn     0.969520000000     0.009340000000     0.255060000000     0.4589     
Zn5      Zn     0.031410000000     0.991220000000     0.689490000000     0.453066   
Zn6      Zn     0.000660000000     0.968080000000     0.762670000000     0.471899   
Zn7      Zn     0.999750000000     0.036010000000     0.748440000000     0.436804   
Zn8      Zn     0.963370000000     0.991260000000     0.695480000000     0.453078   
Zn9      Zn     0.239050000000     0.218290000000     0.064630000000     0.459854   
Zn10     Zn     0.217450000000     0.252190000000     0.135970000000     0.470794   
Zn11     Zn     0.283580000000     0.249960000000     0.122250000000     0.444353   
Zn12     Zn     0.240770000000     0.285000000000     0.064090000000     0.457155   
Zn13     Zn     0.219250000000     0.250760000000     0.635690000000     0.466191   
Zn14     Zn     0.243610000000     0.216760000000     0.566240000000     0.449507   
Zn15     Zn     0.241290000000     0.285310000000     0.565360000000     0.452849   
Zn16     Zn     0.286560000000     0.253420000000     0.621910000000     0.439075   
Zn17     Zn     0.219920000000     0.748740000000     0.368910000000     0.43907    
Zn18     Zn     0.257400000000     0.785850000000     0.308300000000     0.457308   
Zn19     Zn     0.287200000000     0.753710000000     0.374980000000     0.476681   
Zn20     Zn     0.264480000000     0.717980000000     0.307470000000     0.452811   
Zn21     Zn     0.230160000000     0.754820000000     0.799520000000     0.475621   
Zn22     Zn     0.253250000000     0.787620000000     0.870140000000     0.453832   
Zn23     Zn     0.248830000000     0.718750000000     0.871080000000     0.446252   
Zn24     Zn     0.297120000000     0.750460000000     0.816780000000     0.435451   
Zn25     Zn     0.500890000000     0.976620000000     0.988390000000     0.441142   
Zn26     Zn     0.467900000000     0.017850000000     0.928010000000     0.451135   
Zn27     Zn     0.499490000000     0.044420000000     0.997890000000     0.471371   
Zn28     Zn     0.536750000000     0.019990000000     0.932470000000     0.453358   
Zn29     Zn     0.498090000000     0.040660000000     0.440170000000     0.439389   
Zn30     Zn     0.465770000000     0.996870000000     0.499630000000     0.453985   
Zn31     Zn     0.495350000000     0.973300000000     0.425590000000     0.474838   
Zn32     Zn     0.533750000000     0.994550000000     0.492450000000     0.452706   
Zn33     Zn     0.778060000000     0.753140000000     0.299750000000     0.47764    
Zn34     Zn     0.755500000000     0.788180000000     0.368280000000     0.452921   
Zn35     Zn     0.712100000000     0.749980000000     0.315220000000     0.440529   
Zn36     Zn     0.758310000000     0.719610000000     0.373190000000     0.450479   
Zn37     Zn     0.734940000000     0.718340000000     0.804280000000     0.451649   
Zn38     Zn     0.709140000000     0.750080000000     0.874550000000     0.469236   
Zn39     Zn     0.777060000000     0.749650000000     0.865360000000     0.440335   
Zn40     Zn     0.734970000000     0.787120000000     0.809630000000     0.453448   
Zn41     Zn     0.724770000000     0.255090000000     0.116830000000     0.441625   
Zn42     Zn     0.791120000000     0.253860000000     0.126900000000     0.473676   
Zn43     Zn     0.766830000000     0.217120000000     0.062850000000     0.458894   
Zn44     Zn     0.767950000000     0.285120000000     0.054900000000     0.453739   
Zn45     Zn     0.744970000000     0.213410000000     0.622270000000     0.452036   
Zn46     Zn     0.789500000000     0.250200000000     0.568690000000     0.436663   
Zn47     Zn     0.722510000000     0.250650000000     0.554970000000     0.475308   
Zn48     Zn     0.744850000000     0.281610000000     0.628400000000     0.452434   
Zn49     Zn     0.503310000000     0.464740000000     0.005060000000     0.469277   
Zn50     Zn     0.465100000000     0.488100000000     0.937440000000     0.450259   
Zn51     Zn     0.501360000000     0.531950000000     0.991500000000     0.440597   
Zn52     Zn     0.533270000000     0.487870000000     0.931720000000     0.453306   
Zn53     Zn     0.503240000000     0.537660000000     0.493110000000     0.442443   
Zn54     Zn     0.500860000000     0.470370000000     0.506190000000     0.466128   
Zn55     Zn     0.467820000000     0.494610000000     0.436160000000     0.450199   
Zn56     Zn     0.536380000000     0.493570000000     0.436960000000     0.45365    
Zn57     Zn     0.000220000000     0.482550000000     0.172460000000     0.475489   
Zn58     Zn     0.036410000000     0.500230000000     0.244400000000     0.450942   
Zn59     Zn     0.004530000000     0.548080000000     0.190730000000     0.444334   
Zn60     Zn     0.968920000000     0.503980000000     0.245900000000     0.457383   
Zn61     Zn     0.999120000000     0.545620000000     0.690700000000     0.437493   
Zn62     Zn     0.032290000000     0.501470000000     0.749450000000     0.450098   
Zn63     Zn     0.963690000000     0.501160000000     0.744720000000     0.448651   
Zn64     Zn     0.001020000000     0.477560000000     0.677090000000     0.468324   


