data_structure

_audit_creation_method RASPA-1.0
_audit_creation_date 2023-5-19
_audit_author_name 'Poobodin Mano'

_cell_length_a    34.5631
_cell_length_b    34.5521
_cell_length_c    34.5538
_cell_angle_alpha 90
_cell_angle_beta  90
_cell_angle_gamma 90
_cell_volume      41265.1

_symmetry_cell_setting          triclinic
_symmetry_space_group_name_Hall 'P 1'
_symmetry_space_group_name_H-M  'P 1'
_symmetry_Int_Tables_number     1

_symmetry_equiv_pos_as_xyz 'x,y,z'

loop_
_atom_site_label
_atom_site_type_symbol
_atom_site_fract_x
_atom_site_fract_y
_atom_site_fract_z
_atom_site_charge
C1       C      0.993310000000     0.996110000000     0.104860000000     0.369727   
C2       C      0.102870000000     0.996770000000     0.997090000000     0.367011   
C3       C      0.997570000000     0.889060000000     0.996510000000     0.367931   
C4       C      0.993180000000     0.998580000000     0.890160000000     0.369625   
C5       C      0.998580000000     0.105560000000     0.999160000000     0.368039   
C6       C      0.888740000000     0.997800000000     0.997220000000     0.367611   
C7       C      0.102100000000     0.997840000000     0.497160000000     0.368072   
C8       C      0.992260000000     0.995790000000     0.390120000000     0.369699   
C9       C      0.996890000000     0.890160000000     0.499130000000     0.368051   
C10      C      0.886010000000     0.996570000000     0.497190000000     0.366738   
C11      C      0.995540000000     0.104420000000     0.496600000000     0.368213   
C12      C      0.992250000000     0.998840000000     0.604940000000     0.369544   
C13      C      0.001280000000     0.389830000000     0.001200000000     0.367209   
C14      C      0.999120000000     0.498520000000     0.108810000000     0.368639   
C15      C      0.107360000000     0.497850000000     0.000680000000     0.369375   
C16      C      0.000310000000     0.604800000000     0.999110000000     0.366811   
C17      C      0.892910000000     0.496670000000     0.000590000000     0.370021   
C18      C      0.999220000000     0.496190000000     0.892150000000     0.368844   
C19      C      0.998280000000     0.390000000000     0.498960000000     0.36837    
C20      C      0.996700000000     0.498620000000     0.392930000000     0.367217   
C21      C      0.889580000000     0.497740000000     0.500860000000     0.369509   
C22      C      0.999130000000     0.604600000000     0.501430000000     0.368318   
C23      C      0.105740000000     0.496670000000     0.500710000000     0.369648   
C24      C      0.996860000000     0.496110000000     0.608010000000     0.367423   
C25      C      0.388430000000     0.996860000000     0.994200000000     0.367863   
C26      C      0.494700000000     0.998580000000     0.101290000000     0.36733    
C27      C      0.497870000000     0.889170000000     0.994690000000     0.368405   
C28      C      0.603380000000     0.997360000000     0.994320000000     0.368456   
C29      C      0.497180000000     0.104910000000     0.991540000000     0.368534   
C30      C      0.494840000000     0.995300000000     0.886080000000     0.366943   
C31      C      0.386420000000     0.997340000000     0.494180000000     0.366616   
C32      C      0.494890000000     0.995350000000     0.601840000000     0.368421   
C33      C      0.491800000000     0.889280000000     0.492330000000     0.369711   
C34      C      0.601420000000     0.996120000000     0.494040000000     0.365608   
C35      C      0.493250000000     0.104130000000     0.494510000000     0.369867   
C36      C      0.494740000000     0.998040000000     0.385540000000     0.368022   
C37      C      0.392750000000     0.497740000000     0.998790000000     0.369679   
C38      C      0.500620000000     0.495800000000     0.103670000000     0.367799   
C39      C      0.499440000000     0.388960000000     0.993130000000     0.368914   
C40      C      0.607660000000     0.496190000000     0.998470000000     0.370004   
C41      C      0.501070000000     0.605090000000     0.995910000000     0.368997   
C42      C      0.500180000000     0.498390000000     0.889420000000     0.367672   
C43      C      0.389770000000     0.495890000000     0.498590000000     0.369523   
C44      C      0.496510000000     0.389500000000     0.496210000000     0.36968    
C45      C      0.499210000000     0.494960000000     0.389240000000     0.368386   
C46      C      0.605550000000     0.497680000000     0.498550000000     0.369054   
C47      C      0.499470000000     0.498190000000     0.603840000000     0.36821    
C48      C      0.494870000000     0.603930000000     0.492850000000     0.369601   
C49      C      0.470100000000     0.481650000000     0.789090000000    -0.082228   
C50      C      0.500370000000     0.498940000000     0.768250000000     0.0349143  
C51      C      0.530440000000     0.516350000000     0.789280000000    -0.0820822  
C52      C      0.529640000000     0.516400000000     0.829710000000     0.0691123  
C53      C      0.470710000000     0.481400000000     0.829490000000     0.0692833  
C54      C      0.500570000000     0.498670000000     0.725000000000     0.0348953  
C55      C      0.483670000000     0.468100000000     0.704290000000    -0.0822443  
C56      C      0.483300000000     0.468600000000     0.663910000000     0.0691951  
C57      C      0.517480000000     0.528020000000     0.663390000000     0.0691795  
C58      C      0.517520000000     0.528930000000     0.703830000000    -0.0821029  
C59      C      0.483850000000     0.525610000000     0.204050000000    -0.0822364  
C60      C      0.500840000000     0.495120000000     0.224830000000     0.0349386  
C61      C      0.518010000000     0.464960000000     0.203720000000    -0.082064   
C62      C      0.518160000000     0.465900000000     0.163300000000     0.069252   
C63      C      0.483630000000     0.525110000000     0.163660000000     0.0693267  
C64      C      0.500440000000     0.494780000000     0.268090000000     0.0349673  
C65      C      0.530350000000     0.477270000000     0.289300000000    -0.0820498  
C66      C      0.529240000000     0.477090000000     0.329740000000     0.069142   
C67      C      0.470390000000     0.512230000000     0.329130000000     0.0693717  
C68      C      0.470060000000     0.512060000000     0.288750000000    -0.0823352  
C69      C      0.508960000000     0.789030000000     0.521880000000    -0.0825502  
C70      C      0.491550000000     0.768210000000     0.491670000000     0.0350355  
C71      C      0.473460000000     0.789270000000     0.461990000000    -0.0822501  
C72      C      0.473090000000     0.829700000000     0.463050000000     0.0694226  
C73      C      0.509090000000     0.829370000000     0.521390000000     0.0695799  
C74      C      0.492550000000     0.724970000000     0.491180000000     0.0350238  
C75      C      0.523280000000     0.704760000000     0.508400000000    -0.0825849  
C76      C      0.523330000000     0.664430000000     0.508990000000     0.0696383  
C77      C      0.464500000000     0.662880000000     0.473830000000     0.0693276  
C78      C      0.462910000000     0.703310000000     0.473760000000    -0.0821347  
C79      C      0.510940000000     0.204240000000     0.464570000000    -0.082485   
C80      C      0.493410000000     0.225200000000     0.494620000000     0.0350624  
C81      C      0.475420000000     0.204280000000     0.524450000000    -0.0823257  
C82      C      0.474980000000     0.163880000000     0.523590000000     0.0695153  
C83      C      0.511000000000     0.163870000000     0.465260000000     0.0695107  
C84      C      0.494080000000     0.268450000000     0.494900000000     0.0350079  
C85      C      0.524620000000     0.289000000000     0.477690000000    -0.0824186  
C86      C      0.524600000000     0.329380000000     0.477790000000     0.0695937  
C87      C      0.465820000000     0.330160000000     0.513040000000     0.0694621  
C88      C      0.464300000000     0.289790000000     0.512440000000    -0.0822994  
C89      C      0.528870000000     0.789470000000     0.014060000000    -0.0834095  
C90      C      0.500330000000     0.768460000000     0.994650000000     0.0345707  
C91      C      0.471070000000     0.788360000000     0.975170000000    -0.0836873  
C92      C      0.470970000000     0.828780000000     0.975060000000     0.0689197  
C93      C      0.527430000000     0.829900000000     0.014130000000     0.0689845  
C94      C      0.500740000000     0.725820000000     0.995070000000     0.0346423  
C95      C      0.529120000000     0.705330000000     0.974890000000    -0.0836358  
C96      C      0.528570000000     0.664880000000     0.975070000000     0.0689617  
C97      C      0.473300000000     0.664990000000     0.015810000000     0.0691597  
C98      C      0.472500000000     0.705390000000     0.015500000000    -0.0836056  
C99      C      0.526980000000     0.204650000000     0.970600000000    -0.0836357  
C100     C      0.498310000000     0.225630000000     0.989850000000     0.0346156  
C101     C      0.469210000000     0.205690000000     0.009530000000    -0.0835348  
C102     C      0.469490000000     0.165280000000     0.010120000000     0.0691144  
C103     C      0.525910000000     0.164220000000     0.971000000000     0.0688777  
C104     C      0.499010000000     0.268270000000     0.989970000000     0.0345974  
C105     C      0.527560000000     0.288120000000     0.010530000000    -0.0835097  
C106     C      0.527130000000     0.328530000000     0.011480000000     0.0691571  
C107     C      0.471730000000     0.329770000000     0.970930000000     0.0688769  
C108     C      0.470810000000     0.289340000000     0.970130000000    -0.0835874  
C109     C      0.514510000000     0.023070000000     0.785550000000    -0.0833059  
C110     C      0.494820000000     0.994190000000     0.765300000000     0.0344432  
C111     C      0.475020000000     0.965680000000     0.786000000000    -0.0832859  
C112     C      0.474850000000     0.966730000000     0.826460000000     0.0686903  
C113     C      0.514510000000     0.022770000000     0.825960000000     0.069139   
C114     C      0.494660000000     0.994180000000     0.722620000000     0.034456   
C115     C      0.474880000000     0.022990000000     0.702340000000    -0.0833552  
C116     C      0.474960000000     0.022720000000     0.661930000000     0.0690743  
C117     C      0.514860000000     0.966840000000     0.661490000000     0.0687689  
C118     C      0.514620000000     0.965760000000     0.701940000000    -0.0834202  
C119     C      0.513500000000     0.970060000000     0.201790000000    -0.0834982  
C120     C      0.494540000000     0.999390000000     0.222090000000     0.0343936  
C121     C      0.475490000000     0.028450000000     0.201430000000    -0.0830577  
C122     C      0.475350000000     0.027500000000     0.160960000000     0.0689286  
C123     C      0.513550000000     0.970450000000     0.161370000000     0.0688662  
C124     C      0.494400000000     0.999350000000     0.264760000000     0.0344837  
C125     C      0.473640000000     0.971240000000     0.285030000000    -0.0836475  
C126     C      0.473780000000     0.971460000000     0.325450000000     0.0688889  
C127     C      0.515630000000     0.025890000000     0.325900000000     0.0689875  
C128     C      0.515380000000     0.027020000000     0.285450000000    -0.0831764  
C129     C      0.789320000000     0.468640000000     0.519730000000    -0.0837695  
C130     C      0.768880000000     0.498150000000     0.501160000000     0.0348609  
C131     C      0.789410000000     0.527620000000     0.482620000000    -0.0836943  
C132     C      0.829820000000     0.526820000000     0.482420000000     0.0690488  
C133     C      0.829720000000     0.469240000000     0.519840000000     0.0691023  
C134     C      0.726220000000     0.497970000000     0.500750000000     0.03483    
C135     C      0.706120000000     0.468080000000     0.482420000000    -0.0836861  
C136     C      0.665740000000     0.468650000000     0.481610000000     0.0691261  
C137     C      0.664940000000     0.526870000000     0.518030000000     0.0690799  
C138     C      0.705360000000     0.527700000000     0.518500000000    -0.0836177  
C139     C      0.205790000000     0.477640000000     0.471110000000    -0.0836953  
C140     C      0.226420000000     0.495650000000     0.500850000000     0.0349267  
C141     C      0.206070000000     0.513860000000     0.530650000000    -0.0836228  
C142     C      0.165660000000     0.514320000000     0.529950000000     0.0691122  
C143     C      0.165400000000     0.477780000000     0.471800000000     0.0691679  
C144     C      0.269100000000     0.495800000000     0.500470000000     0.0349075  
C145     C      0.290040000000     0.479040000000     0.530730000000    -0.0835154  
C146     C      0.330450000000     0.478900000000     0.529470000000     0.0690801  
C147     C      0.329520000000     0.512930000000     0.469820000000     0.0692349  
C148     C      0.289140000000     0.512690000000     0.469710000000    -0.0836891  
C149     C      0.707550000000     0.466060000000     0.017200000000    -0.0824858  
C150     C      0.728660000000     0.496390000000     0.000280000000     0.0352889  
C151     C      0.707890000000     0.526790000000     0.983130000000    -0.0827515  
C152     C      0.667560000000     0.525980000000     0.982360000000     0.0696662  
C153     C      0.667160000000     0.466810000000     0.017000000000     0.0697662  
C154     C      0.771900000000     0.496310000000     0.000380000000     0.0352245  
C155     C      0.792800000000     0.478070000000     0.030050000000    -0.082394   
C156     C      0.833190000000     0.477910000000     0.029340000000     0.0695667  
C157     C      0.833210000000     0.514890000000     0.971610000000     0.0695468  
C158     C      0.792860000000     0.514540000000     0.970740000000    -0.082616   
C159     C      0.207450000000     0.480500000000     0.970530000000    -0.0825544  
C160     C      0.228430000000     0.497890000000     0.000670000000     0.0351426  
C161     C      0.207510000000     0.515430000000     0.030760000000    -0.0822999  
C162     C      0.167110000000     0.515720000000     0.029990000000     0.0694452  
C163     C      0.167090000000     0.480250000000     0.971320000000     0.0693898  
C164     C      0.271700000000     0.497700000000     0.000640000000     0.0352211  
C165     C      0.292880000000     0.527450000000     0.018460000000    -0.0823293  
C166     C      0.333290000000     0.526630000000     0.018250000000     0.0695774  
C167     C      0.332770000000     0.468510000000     0.981890000000     0.0695521  
C168     C      0.292420000000     0.467760000000     0.982620000000    -0.0827211  
C169     C      0.968810000000     0.474820000000     0.708220000000    -0.0833848  
C170     C      0.997140000000     0.495030000000     0.728770000000     0.0344207  
C171     C      0.025260000000     0.515650000000     0.708390000000    -0.0833535  
C172     C      0.024440000000     0.516080000000     0.667980000000     0.0690641  
C173     C      0.969320000000     0.475140000000     0.667760000000     0.0687754  
C174     C      0.997350000000     0.494830000000     0.771420000000     0.0345406  
C175     C      0.969030000000     0.514870000000     0.792100000000    -0.0836786  
C176     C      0.970290000000     0.515330000000     0.832510000000     0.0688595  
C177     C      0.026150000000     0.475410000000     0.832100000000     0.0689731  
C178     C      0.026220000000     0.475090000000     0.791660000000    -0.0834564  
C179     C      0.969640000000     0.478820000000     0.208880000000    -0.0835898  
C180     C      0.997100000000     0.500040000000     0.229540000000     0.0344517  
C181     C      0.025150000000     0.520910000000     0.209280000000    -0.0834381  
C182     C      0.025150000000     0.520480000000     0.168840000000     0.0690213  
C183     C      0.970920000000     0.478370000000     0.168470000000     0.0687326  
C184     C      0.996920000000     0.499830000000     0.272170000000     0.0343963  
C185     C      0.968780000000     0.520260000000     0.292750000000    -0.0833816  
C186     C      0.969280000000     0.519870000000     0.333200000000     0.0686722  
C187     C      0.024110000000     0.478530000000     0.332910000000     0.0690366  
C188     C      0.024880000000     0.478960000000     0.292510000000    -0.0833759  
C189     C      0.982040000000     0.789440000000     0.469600000000    -0.0823008  
C190     C      0.999530000000     0.769040000000     0.500080000000     0.0347578  
C191     C      0.016670000000     0.790560000000     0.529990000000    -0.0818683  
C192     C      0.016180000000     0.830990000000     0.528850000000     0.0694265  
C193     C      0.981060000000     0.829810000000     0.470010000000     0.0694056  
C194     C      0.999520000000     0.725750000000     0.500730000000     0.0347488  
C195     C      0.969550000000     0.704710000000     0.483160000000    -0.0823504  
C196     C      0.970230000000     0.664350000000     0.483230000000     0.0694214  
C197     C      0.028440000000     0.664420000000     0.519400000000     0.0693669  
C198     C      0.029300000000     0.704870000000     0.518870000000    -0.0817764  
C199     C      0.014860000000     0.204550000000     0.467230000000    -0.0817852  
C200     C      0.997730000000     0.225560000000     0.497510000000     0.0347225  
C201     C      0.980190000000     0.204630000000     0.527590000000    -0.0822086  
C202     C      0.979280000000     0.164270000000     0.526520000000     0.0693358  
C203     C      0.014460000000     0.164110000000     0.467700000000     0.0694595  
C204     C      0.997950000000     0.268850000000     0.497720000000     0.0347833  
C205     C      0.027820000000     0.289870000000     0.479910000000    -0.0818469  
C206     C      0.027200000000     0.330310000000     0.480080000000     0.0694233  
C207     C      0.969110000000     0.330130000000     0.516430000000     0.0694331  
C208     C      0.968180000000     0.289770000000     0.515790000000    -0.082325   
C209     C      0.701950000000     0.025800000000     0.476910000000    -0.082784   
C210     C      0.722320000000     0.996140000000     0.495400000000     0.0343883  
C211     C      0.701560000000     0.966420000000     0.513330000000    -0.0830423  
C212     C      0.661110000000     0.967090000000     0.513000000000     0.0686636  
C213     C      0.661510000000     0.025050000000     0.476230000000     0.0689267  
C214     C      0.765120000000     0.996210000000     0.495960000000     0.034478   
C215     C      0.785420000000     0.027040000000     0.512490000000    -0.0828823  
C216     C      0.825870000000     0.026450000000     0.513160000000     0.0689008  
C217     C      0.826380000000     0.966240000000     0.480200000000     0.0686738  
C218     C      0.785940000000     0.965450000000     0.479960000000    -0.083145   
C219     C      0.202090000000     0.016150000000     0.466560000000    -0.0830857  
C220     C      0.222900000000     0.997760000000     0.495940000000     0.0345702  
C221     C      0.202670000000     0.979470000000     0.525790000000    -0.0833666  
C222     C      0.162230000000     0.979370000000     0.525530000000     0.0689597  
C223     C      0.161670000000     0.016370000000     0.467700000000     0.0691649  
C224     C      0.265620000000     0.997670000000     0.495450000000     0.0344892  
C225     C      0.285770000000     0.979470000000     0.465490000000    -0.0832288  
C226     C      0.326210000000     0.979210000000     0.465750000000     0.0688515  
C227     C      0.326920000000     0.015870000000     0.523800000000     0.0691109  
C228     C      0.286500000000     0.015790000000     0.524940000000    -0.0829719  
C229     C      0.979280000000     0.788500000000     0.025230000000    -0.0837531  
C230     C      0.000070000000     0.768280000000     0.997110000000     0.0348514  
C231     C      0.020140000000     0.789020000000     0.968800000000    -0.0836195  
C232     C      0.019420000000     0.829480000000     0.969280000000     0.0690966  
C233     C      0.978460000000     0.828920000000     0.024370000000     0.0690677  
C234     C      0.000630000000     0.725600000000     0.997290000000     0.0346827  
C235     C      0.020620000000     0.705500000000     0.026080000000    -0.0832559  
C236     C      0.020650000000     0.665040000000     0.025980000000     0.0689943  
C237     C      0.980600000000     0.664310000000     0.970220000000     0.0685949  
C238     C      0.980700000000     0.704750000000     0.969000000000    -0.0835844  
C239     C      0.980460000000     0.206610000000     0.972080000000    -0.084096   
C240     C      0.001310000000     0.226330000000     0.000510000000     0.0352245  
C241     C      0.021440000000     0.205100000000     0.028400000000    -0.0837178  
C242     C      0.020690000000     0.164650000000     0.027220000000     0.0692935  
C243     C      0.979600000000     0.166180000000     0.972240000000     0.0690034  
C244     C      0.001860000000     0.269010000000     0.001100000000     0.0349463  
C245     C      0.021790000000     0.289620000000     0.972620000000    -0.0836024  
C246     C      0.021790000000     0.330060000000     0.973420000000     0.068773   
C247     C      0.981850000000     0.329810000000     0.029270000000     0.0686498  
C248     C      0.981990000000     0.289360000000     0.029800000000    -0.0835759  
C249     C      0.703260000000     0.980670000000     0.025790000000    -0.0821915  
C250     C      0.724450000000     0.997800000000     0.995680000000     0.0345806  
C251     C      0.703830000000     0.014840000000     0.965120000000    -0.0820166  
C252     C      0.663430000000     0.014860000000     0.965360000000     0.0693415  
C253     C      0.662890000000     0.980390000000     0.024630000000     0.0692761  
C254     C      0.767670000000     0.997850000000     0.996150000000     0.03459    
C255     C      0.788730000000     0.028240000000     0.979370000000    -0.0819246  
C256     C      0.829120000000     0.027560000000     0.979620000000     0.0694117  
C257     C      0.828800000000     0.968190000000     0.013910000000     0.0694165  
C258     C      0.788420000000     0.967480000000     0.013360000000    -0.0820849  
C259     C      0.203390000000     0.013180000000     0.026780000000    -0.0817073  
C260     C      0.224020000000     0.996560000000     0.995980000000     0.0344852  
C261     C      0.202770000000     0.979940000000     0.965610000000    -0.082051   
C262     C      0.162370000000     0.979790000000     0.966720000000     0.0690359  
C263     C      0.162980000000     0.013420000000     0.026450000000     0.0694965  
C264     C      0.267290000000     0.996620000000     0.995500000000     0.0345614  
C265     C      0.288370000000     0.026450000000     0.013250000000    -0.0818023  
C266     C      0.328770000000     0.025810000000     0.012960000000     0.0695073  
C267     C      0.328490000000     0.967690000000     0.976620000000     0.069042   
C268     C      0.288090000000     0.966870000000     0.977250000000    -0.0821812  
C269     C      0.008660000000     0.968500000000     0.789780000000    -0.0824351  
C270     C      0.990870000000     0.998630000000     0.769160000000     0.0346336  
C271     C      0.973230000000     0.028450000000     0.790360000000    -0.0820845  
C272     C      0.973620000000     0.027630000000     0.830770000000     0.0695523  
C273     C      0.009460000000     0.969180000000     0.830110000000     0.0697716  
C274     C      0.991130000000     0.998990000000     0.725950000000     0.0346472  
C275     C      0.021820000000     0.982300000000     0.705270000000    -0.0824776  
C276     C      0.021400000000     0.982090000000     0.664940000000     0.0698118  
C277     C      0.961940000000     0.016190000000     0.664410000000     0.0695079  
C278     C      0.960870000000     0.015960000000     0.704830000000    -0.0820676  
C279     C      0.961110000000     0.978450000000     0.290220000000    -0.0822139  
C280     C      0.991200000000     0.995750000000     0.269100000000     0.034623   
C281     C      0.021700000000     0.012750000000     0.289830000000    -0.0821364  
C282     C      0.021230000000     0.012970000000     0.330160000000     0.0700175  
C283     C      0.962190000000     0.978140000000     0.330640000000     0.0693135  
C284     C      0.990980000000     0.996110000000     0.225860000000     0.0346148  
C285     C      0.973130000000     0.966410000000     0.204640000000    -0.0822599  
C286     C      0.973490000000     0.967250000000     0.164230000000     0.0694214  
C287     C      0.009860000000     0.025360000000     0.164880000000     0.0700387  
C288     C      0.009000000000     0.026090000000     0.205210000000    -0.0820685  
H1       H      0.554940000000     0.529420000000     0.774810000000     0.0528669  
H2       H      0.553560000000     0.530120000000     0.844660000000     0.0318519  
H3       H      0.446700000000     0.467600000000     0.844240000000     0.0317925  
H4       H      0.445630000000     0.468670000000     0.774490000000     0.0528613  
H5       H      0.471080000000     0.443470000000     0.718990000000     0.0528839  
H6       H      0.469790000000     0.444350000000     0.649280000000     0.0318831  
H7       H      0.530820000000     0.552090000000     0.648310000000     0.0316832  
H8       H      0.530310000000     0.553640000000     0.718200000000     0.0528481  
H9       H      0.530840000000     0.440280000000     0.218130000000     0.0528371  
H10      H      0.531720000000     0.441910000000     0.148280000000     0.0317923  
H11      H      0.470080000000     0.549300000000     0.148960000000     0.0318239  
H12      H      0.471070000000     0.550170000000     0.218680000000     0.0529112  
H13      H      0.554930000000     0.464190000000     0.274980000000     0.052858   
H14      H      0.552990000000     0.463270000000     0.344880000000     0.0316648  
H15      H      0.446270000000     0.526020000000     0.343710000000     0.0317429  
H16      H      0.445690000000     0.525090000000     0.274030000000     0.0528489  
H17      H      0.460180000000     0.774860000000     0.437570000000     0.0527196  
H18      H      0.458930000000     0.844750000000     0.439420000000     0.0313327  
H19      H      0.523130000000     0.844090000000     0.545290000000     0.0314212  
H20      H      0.522260000000     0.774490000000     0.546220000000     0.0527432  
H21      H      0.547600000000     0.719770000000     0.521180000000     0.0527364  
H22      H      0.547620000000     0.650210000000     0.522860000000     0.0314624  
H23      H      0.440900000000     0.647340000000     0.460200000000     0.0314938  
H24      H      0.438120000000     0.717230000000     0.460660000000     0.0527932  
H25      H      0.462190000000     0.218760000000     0.548860000000     0.0527375  
H26      H      0.460820000000     0.148980000000     0.547310000000     0.0313832  
H27      H      0.525040000000     0.149000000000     0.441460000000     0.03141    
H28      H      0.524320000000     0.218680000000     0.440220000000     0.0527285  
H29      H      0.548910000000     0.274210000000     0.464600000000     0.0526947  
H30      H      0.548820000000     0.343930000000     0.464140000000     0.0314111  
H31      H      0.442190000000     0.345360000000     0.527000000000     0.0315891  
H32      H      0.439510000000     0.275650000000     0.525320000000     0.0528241  
H33      H      0.448580000000     0.772750000000     0.959880000000     0.0550651  
H34      H      0.447840000000     0.843150000000     0.959480000000     0.0317512  
H35      H      0.549940000000     0.845210000000     0.029720000000     0.0317792  
H36      H      0.551840000000     0.774730000000     0.029480000000     0.055092   
H37      H      0.551310000000     0.720480000000     0.958740000000     0.0550326  
H38      H      0.550950000000     0.649970000000     0.958900000000     0.0316448  
H39      H      0.450980000000     0.650190000000     0.032170000000     0.03173    
H40      H      0.450160000000     0.720590000000     0.031400000000     0.055085   
H41      H      0.446690000000     0.221270000000     0.024800000000     0.0551388  
H42      H      0.446540000000     0.150870000000     0.025930000000     0.0317697  
H43      H      0.548570000000     0.148930000000     0.955600000000     0.0317563  
H44      H      0.549900000000     0.219420000000     0.955130000000     0.0550476  
H45      H      0.549720000000     0.272470000000     0.026240000000     0.0551433  
H46      H      0.549590000000     0.342860000000     0.028030000000     0.0317586  
H47      H      0.449400000000     0.345130000000     0.955120000000     0.0316303  
H48      H      0.448330000000     0.274640000000     0.953950000000     0.0549402  
H49      H      0.459400000000     0.943000000000     0.770990000000     0.0549915  
H50      H      0.459000000000     0.944230000000     0.841530000000     0.0318649  
H51      H      0.530330000000     0.045590000000     0.840590000000     0.0320489  
H52      H      0.530090000000     0.045550000000     0.770210000000     0.0551765  
H53      H      0.459190000000     0.045410000000     0.717660000000     0.0550878  
H54      H      0.459090000000     0.045480000000     0.647270000000     0.031808   
H55      H      0.530830000000     0.944410000000     0.646440000000     0.0316605  
H56      H      0.530310000000     0.943150000000     0.716970000000     0.0550268  
H57      H      0.460460000000     0.051490000000     0.216470000000     0.0550725  
H58      H      0.460110000000     0.050440000000     0.145930000000     0.0318686  
H59      H      0.528780000000     0.947260000000     0.146720000000     0.0320553  
H60      H      0.528480000000     0.947150000000     0.217090000000     0.0551668  
H61      H      0.457150000000     0.949420000000     0.269700000000     0.0551146  
H62      H      0.457130000000     0.949260000000     0.340090000000     0.0318016  
H63      H      0.532410000000     0.047720000000     0.340940000000     0.0317071  
H64      H      0.531850000000     0.049070000000     0.270430000000     0.0551022  
H65      H      0.774310000000     0.550810000000     0.467880000000     0.0548123  
H66      H      0.844720000000     0.550050000000     0.467480000000     0.0315373  
H67      H      0.844530000000     0.445920000000     0.534720000000     0.0315315  
H68      H      0.774130000000     0.445450000000     0.534380000000     0.0548206  
H69      H      0.721560000000     0.444700000000     0.468340000000     0.0548247  
H70      H      0.651210000000     0.445070000000     0.466850000000     0.0316653  
H71      H      0.649770000000     0.550350000000     0.532270000000     0.0315529  
H72      H      0.720210000000     0.551200000000     0.533000000000     0.0547558  
H73      H      0.221310000000     0.528170000000     0.554020000000     0.0547091  
H74      H      0.150900000000     0.529000000000     0.553430000000     0.031571   
H75      H      0.150450000000     0.463350000000     0.448290000000     0.0316102  
H76      H      0.220810000000     0.463220000000     0.447660000000     0.0547016  
H77      H      0.275250000000     0.465650000000     0.554920000000     0.0546548  
H78      H      0.345690000000     0.465370000000     0.553320000000     0.0316517  
H79      H      0.343970000000     0.526490000000     0.445500000000     0.0317034  
H80      H      0.273660000000     0.526010000000     0.445910000000     0.0547084  
H81      H      0.722450000000     0.551530000000     0.970620000000     0.0527643  
H82      H      0.652840000000     0.550070000000     0.968650000000     0.0313671  
H83      H      0.652110000000     0.442730000000     0.030350000000     0.0312976  
H84      H      0.721880000000     0.441390000000     0.030080000000     0.0527812  
H85      H      0.778320000000     0.464330000000     0.054170000000     0.052735   
H86      H      0.848070000000     0.463450000000     0.052880000000     0.0313795  
H87      H      0.848090000000     0.529410000000     0.948100000000     0.0314053  
H88      H      0.778450000000     0.528160000000     0.946500000000     0.0527259  
H89      H      0.221980000000     0.528500000000     0.055250000000     0.0526756  
H90      H      0.152230000000     0.529620000000     0.053870000000     0.0313932  
H91      H      0.152210000000     0.466390000000     0.947420000000     0.0314393  
H92      H      0.221850000000     0.467470000000     0.945980000000     0.0527071  
H93      H      0.278610000000     0.551780000000     0.032060000000     0.052664   
H94      H      0.348380000000     0.550280000000     0.032310000000     0.0312742  
H95      H      0.347440000000     0.444810000000     0.967470000000     0.031316   
H96      H      0.277830000000     0.443440000000     0.969370000000     0.0527299  
H97      H      0.047510000000     0.531650000000     0.723620000000     0.0551091  
H98      H      0.046690000000     0.532570000000     0.653250000000     0.031959   
H99      H      0.947000000000     0.458940000000     0.652820000000     0.03188    
H100     H      0.946650000000     0.458590000000     0.723340000000     0.055049   
H101     H      0.946370000000     0.530510000000     0.777100000000     0.0550903  
H102     H      0.947940000000     0.531440000000     0.847520000000     0.0316711  
H103     H      0.048960000000     0.459640000000     0.846780000000     0.0315674  
H104     H      0.048550000000     0.459320000000     0.776310000000     0.0550248  
H105     H      0.046820000000     0.537580000000     0.224630000000     0.0551065  
H106     H      0.047320000000     0.537120000000     0.154150000000     0.031629   
H107     H      0.949240000000     0.461350000000     0.153480000000     0.0317721  
H108     H      0.947630000000     0.462290000000     0.223900000000     0.055158   
H109     H      0.946750000000     0.536680000000     0.277640000000     0.0551178  
H110     H      0.947100000000     0.536230000000     0.348180000000     0.0319146  
H111     H      0.046240000000     0.461850000000     0.347610000000     0.0319874  
H112     H      0.046990000000     0.462800000000     0.277240000000     0.0551932  
H113     H      0.029880000000     0.776520000000     0.554650000000     0.0528027  
H114     H      0.029670000000     0.846350000000     0.552660000000     0.0316664  
H115     H      0.967050000000     0.844190000000     0.445890000000     0.0316442  
H116     H      0.969370000000     0.774560000000     0.445140000000     0.0527908  
H117     H      0.945200000000     0.719080000000     0.469720000000     0.0527157  
H118     H      0.946430000000     0.649480000000     0.469180000000     0.0316128  
H119     H      0.052060000000     0.649540000000     0.533720000000     0.0315527  
H120     H      0.053600000000     0.719430000000     0.532200000000     0.0527757  
H121     H      0.967480000000     0.219080000000     0.552290000000     0.0527531  
H122     H      0.965270000000     0.149470000000     0.550380000000     0.0316924  
H123     H      0.028010000000     0.149160000000     0.443660000000     0.03166    
H124     H      0.028080000000     0.219000000000     0.442800000000     0.0527622  
H125     H      0.052020000000     0.275430000000     0.466280000000     0.0528055  
H126     H      0.050890000000     0.345280000000     0.465950000000     0.0316078  
H127     H      0.945460000000     0.344920000000     0.530810000000     0.0315255  
H128     H      0.943790000000     0.275310000000     0.529060000000     0.0526858  
H129     H      0.716520000000     0.943080000000     0.527980000000     0.0546591  
H130     H      0.646110000000     0.943640000000     0.527480000000     0.0319637  
H131     H      0.646830000000     0.048480000000     0.461400000000     0.0319736  
H132     H      0.717220000000     0.049180000000     0.462640000000     0.054695   
H133     H      0.770110000000     0.051250000000     0.525240000000     0.0546759  
H134     H      0.840510000000     0.050810000000     0.526450000000     0.0318708  
H135     H      0.841430000000     0.941950000000     0.467240000000     0.0318764  
H136     H      0.771030000000     0.941180000000     0.466850000000     0.0546357  
H137     H      0.218040000000     0.964920000000     0.548920000000     0.0548735  
H138     H      0.147610000000     0.964640000000     0.549060000000     0.0317253  
H139     H      0.146600000000     0.031140000000     0.444470000000     0.0317713  
H140     H      0.217000000000     0.030650000000     0.443090000000     0.054899   
H141     H      0.270340000000     0.965120000000     0.442270000000     0.0549087  
H142     H      0.340770000000     0.964570000000     0.442120000000     0.0319763  
H143     H      0.342040000000     0.030440000000     0.547110000000     0.0320313  
H144     H      0.271650000000     0.030210000000     0.548500000000     0.054955   
H145     H      0.036530000000     0.774040000000     0.946670000000     0.0551416  
H146     H      0.035480000000     0.844560000000     0.946940000000     0.0316136  
H147     H      0.961790000000     0.843530000000     0.046590000000     0.0317696  
H148     H      0.963410000000     0.773140000000     0.047490000000     0.0551882  
H149     H      0.036310000000     0.720970000000     0.048390000000     0.0552201  
H150     H      0.036610000000     0.650500000000     0.048750000000     0.0320191  
H151     H      0.964570000000     0.649180000000     0.947900000000     0.0320265  
H152     H      0.964870000000     0.719630000000     0.946390000000     0.055149   
H153     H      0.037880000000     0.219680000000     0.050760000000     0.055188   
H154     H      0.036780000000     0.149190000000     0.049280000000     0.0316241  
H155     H      0.962870000000     0.151960000000     0.949820000000     0.0317527  
H156     H      0.964550000000     0.222370000000     0.950120000000     0.0552167  
H157     H      0.037440000000     0.274540000000     0.950020000000     0.0552422  
H158     H      0.037670000000     0.344990000000     0.950860000000     0.0320501  
H159     H      0.965840000000     0.344560000000     0.051860000000     0.0320194  
H160     H      0.966220000000     0.274080000000     0.052190000000     0.0551854  
H161     H      0.718620000000     0.027710000000     0.940700000000     0.0529202  
H162     H      0.648800000000     0.028360000000     0.941110000000     0.0317229  
H163     H      0.647810000000     0.966800000000     0.048560000000     0.0317733  
H164     H      0.717560000000     0.967890000000     0.050540000000     0.0529258  
H165     H      0.774300000000     0.052870000000     0.966470000000     0.0528517  
H166     H      0.844100000000     0.051690000000     0.966280000000     0.0318467  
H167     H      0.843520000000     0.944050000000     0.027530000000     0.0318466  
H168     H      0.773760000000     0.942840000000     0.025960000000     0.0529118  
H169     H      0.217010000000     0.967510000000     0.940650000000     0.0527934  
H170     H      0.147270000000     0.966620000000     0.942570000000     0.0318253  
H171     H      0.148360000000     0.026640000000     0.050880000000     0.0317859  
H172     H      0.218140000000     0.025590000000     0.051450000000     0.0528422  
H173     H      0.273980000000     0.050650000000     0.026960000000     0.0527796  
H174     H      0.343730000000     0.049500000000     0.027090000000     0.0316055  
H175     H      0.343250000000     0.944060000000     0.962170000000     0.0315582  
H176     H      0.273490000000     0.942630000000     0.963860000000     0.0527649  
H177     H      0.959730000000     0.052810000000     0.776050000000     0.0527257  
H178     H      0.959780000000     0.051370000000     0.845930000000     0.0314041  
H179     H      0.023730000000     0.945340000000     0.844710000000     0.0314511  
H180     H      0.021720000000     0.944140000000     0.775080000000     0.0528233  
H181     H      0.046490000000     0.969780000000     0.719930000000     0.0528068  
H182     H      0.045760000000     0.968760000000     0.650320000000     0.0315271  
H183     H      0.937920000000     0.029580000000     0.649280000000     0.0314822  
H184     H      0.936080000000     0.028590000000     0.719190000000     0.0528208  
H185     H      0.046290000000     0.025500000000     0.275240000000     0.0527458  
H186     H      0.045430000000     0.026550000000     0.344820000000     0.0314836  
H187     H      0.938320000000     0.964480000000     0.345750000000     0.031381   
H188     H      0.936420000000     0.965610000000     0.275870000000     0.0527136  
H189     H      0.959460000000     0.942120000000     0.218910000000     0.0526496  
H190     H      0.959460000000     0.943620000000     0.149070000000     0.0313321  
H191     H      0.024330000000     0.049080000000     0.150280000000     0.031358   
H192     H      0.022210000000     0.050400000000     0.219880000000     0.0527123  
N1       N      0.500170000000     0.498760000000     0.849690000000    -0.182948   
N2       N      0.500160000000     0.498280000000     0.643560000000    -0.183109   
N3       N      0.500810000000     0.495580000000     0.143390000000    -0.183048   
N4       N      0.499650000000     0.494730000000     0.349520000000    -0.183156   
N5       N      0.491240000000     0.849590000000     0.492240000000    -0.1837     
N6       N      0.494210000000     0.643600000000     0.491800000000    -0.183631   
N7       N      0.493010000000     0.143820000000     0.494450000000    -0.183741   
N8       N      0.495620000000     0.349820000000     0.495640000000    -0.183663   
N9       N      0.498780000000     0.849430000000     0.994630000000    -0.183185   
N10      N      0.500990000000     0.644830000000     0.995560000000    -0.18335    
N11      N      0.497540000000     0.144650000000     0.990870000000    -0.183226   
N12      N      0.499460000000     0.349250000000     0.991780000000    -0.183345   
N13      N      0.494660000000     0.994940000000     0.846330000000    -0.182863   
N14      N      0.494980000000     0.994980000000     0.641590000000    -0.183192   
N15      N      0.494460000000     0.998840000000     0.141050000000    -0.182876   
N16      N      0.494780000000     0.998450000000     0.345790000000    -0.183128   
N17      N      0.849860000000     0.497940000000     0.501050000000    -0.183456   
N18      N      0.645250000000     0.497730000000     0.499440000000    -0.183358   
N19      N      0.145450000000     0.496260000000     0.500830000000    -0.183496   
N20      N      0.350060000000     0.495910000000     0.499330000000    -0.183415   
N21      N      0.647310000000     0.496320000000     0.999330000000    -0.183971   
N22      N      0.853250000000     0.496490000000     0.000530000000    -0.183756   
N23      N      0.147040000000     0.497950000000     0.000680000000    -0.183488   
N24      N      0.353080000000     0.497620000000     0.999710000000    -0.183809   
N25      N      0.996820000000     0.495790000000     0.647760000000    -0.182924   
N26      N      0.998560000000     0.495640000000     0.852410000000    -0.183349   
N27      N      0.998410000000     0.499140000000     0.148550000000    -0.183283   
N28      N      0.996650000000     0.499000000000     0.353170000000    -0.182834   
N29      N      0.998090000000     0.850470000000     0.499330000000    -0.183351   
N30      N      0.999320000000     0.644310000000     0.501380000000    -0.183398   
N31      N      0.996440000000     0.144120000000     0.496910000000    -0.183337   
N32      N      0.998240000000     0.350300000000     0.498500000000    -0.183453   
N33      N      0.641190000000     0.996070000000     0.494390000000    -0.182398   
N34      N      0.846250000000     0.996410000000     0.496880000000    -0.182693   
N35      N      0.141840000000     0.997880000000     0.496820000000    -0.183086   
N36      N      0.346670000000     0.997490000000     0.494560000000    -0.182688   
N37      N      0.998520000000     0.849310000000     0.996710000000    -0.183229   
N38      N      0.000540000000     0.644560000000     0.998430000000    -0.182571   
N39      N      0.999680000000     0.145300000000     0.999520000000    -0.183269   
N40      N      0.001680000000     0.350060000000     0.001330000000    -0.182411   
N41      N      0.643080000000     0.997540000000     0.994760000000    -0.183493   
N42      N      0.849040000000     0.997860000000     0.996940000000    -0.18328    
N43      N      0.142590000000     0.996650000000     0.996770000000    -0.183053   
N44      N      0.348720000000     0.996790000000     0.994580000000    -0.183338   
N45      N      0.992030000000     0.998470000000     0.850490000000    -0.183968   
N46      N      0.991810000000     0.999060000000     0.644620000000    -0.184006   
N47      N      0.991830000000     0.995620000000     0.350450000000    -0.184071   
N48      N      0.992160000000     0.996230000000     0.144510000000    -0.184105   
O1       O      0.995790000000     0.997330000000     0.997510000000    -0.367703   
O2       O      0.971990000000     0.972690000000     0.085890000000    -0.302714   
O3       O      0.084760000000     0.016890000000     0.022260000000    -0.301123   
O4       O      0.019290000000     0.907980000000     0.973400000000    -0.301429   
O5       O      0.015800000000     0.019390000000     0.087150000000    -0.303417   
O6       O      0.974910000000     0.907000000000     0.019450000000    -0.302646   
O7       O      0.084270000000     0.976800000000     0.972170000000    -0.30174    
O8       O      0.972510000000     0.022560000000     0.909130000000    -0.302518   
O9       O      0.020240000000     0.086250000000     0.021990000000    -0.3014     
O10      O      0.015060000000     0.974710000000     0.907860000000    -0.303661   
O11      O      0.975750000000     0.088020000000     0.976070000000    -0.302624   
O12      O      0.907260000000     0.022830000000     0.977320000000    -0.301653   
O13      O      0.906920000000     0.972670000000     0.017310000000    -0.301723   
O14      O      0.994050000000     0.997270000000     0.497530000000    -0.367933   
O15      O      0.083910000000     0.976760000000     0.521410000000    -0.301963   
O16      O      0.016520000000     0.017070000000     0.407990000000    -0.30386    
O17      O      0.975040000000     0.907690000000     0.475050000000    -0.302459   
O18      O      0.083470000000     0.018820000000     0.473170000000    -0.301927   
O19      O      0.017520000000     0.909320000000     0.523060000000    -0.30151    
O20      O      0.968570000000     0.974640000000     0.408950000000    -0.302351   
O21      O      0.904190000000     0.022190000000     0.516630000000    -0.301035   
O22      O      0.016430000000     0.085720000000     0.472540000000    -0.30147    
O23      O      0.904670000000     0.971140000000     0.477960000000    -0.301307   
O24      O      0.973800000000     0.086430000000     0.520430000000    -0.302541   
O25      O      0.967930000000     0.019250000000     0.586080000000    -0.30205    
O26      O      0.017120000000     0.978260000000     0.587100000000    -0.30404    
O27      O      0.000130000000     0.497310000000     0.000500000000    -0.366014   
O28      O      0.022840000000     0.408360000000     0.977580000000    -0.301354   
O29      O      0.976590000000     0.475870000000     0.090360000000    -0.302821   
O30      O      0.088950000000     0.519390000000     0.024370000000    -0.302374   
O31      O      0.979220000000     0.408090000000     0.024570000000    -0.301302   
O32      O      0.089100000000     0.476220000000     0.976970000000    -0.302982   
O33      O      0.022280000000     0.520620000000     0.090430000000    -0.302067   
O34      O      0.978330000000     0.586130000000     0.976000000000    -0.30147    
O35      O      0.911330000000     0.474540000000     0.023700000000    -0.302814   
O36      O      0.022050000000     0.586670000000     0.022890000000    -0.300835   
O37      O      0.911160000000     0.518970000000     0.977510000000    -0.303339   
O38      O      0.976070000000     0.518190000000     0.910610000000    -0.303      
O39      O      0.022950000000     0.474710000000     0.910520000000    -0.302327   
O40      O      0.997680000000     0.497310000000     0.500510000000    -0.366827   
O41      O      0.974700000000     0.408050000000     0.520910000000    -0.302761   
O42      O      0.020010000000     0.476390000000     0.410990000000    -0.302205   
O43      O      0.907990000000     0.521630000000     0.479610000000    -0.303027   
O44      O      0.021740000000     0.408670000000     0.477370000000    -0.301497   
O45      O      0.907950000000     0.473640000000     0.521910000000    -0.303013   
O46      O      0.973620000000     0.520590000000     0.411660000000    -0.301061   
O47      O      0.022600000000     0.586010000000     0.523080000000    -0.301102   
O48      O      0.087230000000     0.476100000000     0.476300000000    -0.303173   
O49      O      0.975320000000     0.586470000000     0.479800000000    -0.303084   
O50      O      0.087470000000     0.517610000000     0.524980000000    -0.302905   
O51      O      0.020030000000     0.518460000000     0.589910000000    -0.302059   
O52      O      0.973900000000     0.473980000000     0.589340000000    -0.301092   
O53      O      0.495890000000     0.997040000000     0.993660000000    -0.366936   
O54      O      0.406670000000     0.972830000000     0.972890000000    -0.301887   
O55      O      0.473770000000     0.022550000000     0.082500000000    -0.300641   
O56      O      0.521130000000     0.908130000000     0.016200000000    -0.301899   
O57      O      0.406930000000     0.020960000000     0.015210000000    -0.301765   
O58      O      0.473710000000     0.906990000000     0.973220000000    -0.302754   
O59      O      0.516060000000     0.974430000000     0.083300000000    -0.302441   
O60      O      0.585180000000     0.017300000000     0.969120000000    -0.302097   
O61      O      0.473340000000     0.087150000000     0.013410000000    -0.302685   
O62      O      0.584850000000     0.977260000000     0.019130000000    -0.302594   
O63      O      0.520620000000     0.085880000000     0.970290000000    -0.301996   
O64      O      0.516830000000     0.018910000000     0.904060000000    -0.301954   
O65      O      0.473190000000     0.971980000000     0.904900000000    -0.300633   
O66      O      0.493880000000     0.996690000000     0.493670000000    -0.366348   
O67      O      0.404520000000     0.976320000000     0.469750000000    -0.300951   
O68      O      0.472880000000     0.018820000000     0.583790000000    -0.302781   
O69      O      0.513870000000     0.907150000000     0.515900000000    -0.303716   
O70      O      0.405090000000     0.018180000000     0.518320000000    -0.300987   
O71      O      0.470430000000     0.908100000000     0.468830000000    -0.302169   
O72      O      0.516630000000     0.972150000000     0.583070000000    -0.301659   
O73      O      0.583230000000     0.020420000000     0.472930000000    -0.300369   
O74      O      0.471760000000     0.085610000000     0.518140000000    -0.30252    
O75      O      0.582810000000     0.971930000000     0.514920000000    -0.300612   
O76      O      0.515100000000     0.085950000000     0.470980000000    -0.30353    
O77      O      0.517270000000     0.020500000000     0.404300000000    -0.301263   
O78      O      0.471970000000     0.975300000000     0.403610000000    -0.302694   
O79      O      0.500240000000     0.497000000000     0.996540000000    -0.367482   
O80      O      0.410590000000     0.474500000000     0.976360000000    -0.303663   
O81      O      0.480180000000     0.520700000000     0.085560000000    -0.301937   
O82      O      0.522430000000     0.406540000000     0.016010000000    -0.303      
O83      O      0.411600000000     0.521150000000     0.020230000000    -0.302447   
O84      O      0.476340000000     0.408170000000     0.971670000000    -0.302166   
O85      O      0.520910000000     0.471150000000     0.085050000000    -0.301524   
O86      O      0.589770000000     0.520060000000     0.976750000000    -0.303804   
O87      O      0.478080000000     0.586900000000     0.018300000000    -0.303156   
O88      O      0.588870000000     0.472170000000     0.019280000000    -0.302542   
O89      O      0.524140000000     0.586470000000     0.973910000000    -0.302176   
O90      O      0.524970000000     0.518560000000     0.907970000000    -0.301671   
O91      O      0.475440000000     0.477800000000     0.907580000000    -0.30183    
O92      O      0.497670000000     0.496740000000     0.496530000000    -0.36798    
O93      O      0.407610000000     0.515540000000     0.472970000000    -0.303669   
O94      O      0.473080000000     0.408060000000     0.517870000000    -0.303054   
O95      O      0.523480000000     0.474460000000     0.408120000000    -0.301322   
O96      O      0.408690000000     0.476180000000     0.523410000000    -0.302498   
O97      O      0.474420000000     0.515690000000     0.407100000000    -0.302946   
O98      O      0.520880000000     0.407610000000     0.475210000000    -0.302877   
O99      O      0.586610000000     0.522040000000     0.518830000000    -0.302262   
O100     O      0.479030000000     0.473160000000     0.585980000000    -0.302838   
O101     O      0.587710000000     0.473310000000     0.477340000000    -0.303067   
O102     O      0.519090000000     0.523190000000     0.584970000000    -0.301374   
O103     O      0.519000000000     0.586710000000     0.514830000000    -0.304026   
O104     O      0.471360000000     0.584480000000     0.472040000000    -0.301883   
Zn1      Zn     0.963340000000     0.963320000000     0.028990000000     0.453261   
Zn2      Zn     0.028290000000     0.029000000000     0.031230000000     0.45333    
Zn3      Zn     0.027690000000     0.965130000000     0.963740000000     0.45312    
Zn4      Zn     0.963810000000     0.031830000000     0.966060000000     0.453231   
Zn5      Zn     0.027240000000     0.966360000000     0.531240000000     0.453849   
Zn6      Zn     0.026680000000     0.028810000000     0.463850000000     0.454179   
Zn7      Zn     0.961440000000     0.963620000000     0.465890000000     0.452324   
Zn8      Zn     0.960800000000     0.030300000000     0.529150000000     0.452561   
Zn9      Zn     0.032760000000     0.465100000000     0.967300000000     0.452311   
Zn10     Zn     0.967870000000     0.464770000000     0.033780000000     0.452485   
Zn11     Zn     0.032370000000     0.530060000000     0.033650000000     0.451915   
Zn12     Zn     0.967470000000     0.529330000000     0.967190000000     0.45279    
Zn13     Zn     0.964550000000     0.464240000000     0.532310000000     0.45251    
Zn14     Zn     0.030670000000     0.465560000000     0.467250000000     0.453146   
Zn15     Zn     0.964600000000     0.530420000000     0.468730000000     0.452763   
Zn16     Zn     0.030940000000     0.529000000000     0.533630000000     0.452577   
Zn17     Zn     0.463260000000     0.963230000000     0.962050000000     0.451705   
Zn18     Zn     0.463490000000     0.030970000000     0.025340000000     0.452355   
Zn19     Zn     0.528430000000     0.965120000000     0.027110000000     0.453002   
Zn20     Zn     0.528670000000     0.028820000000     0.960250000000     0.452774   
Zn21     Zn     0.461110000000     0.965090000000     0.459930000000     0.452113   
Zn22     Zn     0.461840000000     0.028860000000     0.527490000000     0.452853   
Zn23     Zn     0.525980000000     0.963060000000     0.525960000000     0.452024   
Zn24     Zn     0.526560000000     0.029780000000     0.461370000000     0.452105   
Zn25     Zn     0.466630000000     0.465320000000     0.963960000000     0.453128   
Zn26     Zn     0.468510000000     0.530510000000     0.029210000000     0.453409   
Zn27     Zn     0.532050000000     0.462640000000     0.028320000000     0.453321   
Zn28     Zn     0.533770000000     0.529540000000     0.964680000000     0.453319   
Zn29     Zn     0.463730000000     0.527140000000     0.463130000000     0.45396    
Zn30     Zn     0.465570000000     0.464530000000     0.530000000000     0.453821   
Zn31     Zn     0.531530000000     0.464040000000     0.465190000000     0.453167   
Zn32     Zn     0.529620000000     0.531200000000     0.527910000000     0.45338    


