data_structure

_audit_creation_method RASPA-1.0
_audit_creation_date 2023-5-19
_audit_author_name 'Poobodin Mano'

_cell_length_a    43.2446
_cell_length_b    43.2461
_cell_length_c    43.2436
_cell_angle_alpha 90
_cell_angle_beta  90
_cell_angle_gamma 90
_cell_volume      80872.5

_symmetry_cell_setting          triclinic
_symmetry_space_group_name_Hall 'P 1'
_symmetry_space_group_name_H-M  'P 1'
_symmetry_Int_Tables_number     1

_symmetry_equiv_pos_as_xyz 'x,y,z'

loop_
_atom_site_label
_atom_site_type_symbol
_atom_site_fract_x
_atom_site_fract_y
_atom_site_fract_z
_atom_site_charge
C1       C      0.001500000000     0.995450000000     0.083860000000     0.368675   
C2       C      0.085520000000     0.992790000000     0.995650000000     0.368542   
C3       C      0.998880000000     0.906500000000     0.001880000000     0.37123    
C4       C      0.999220000000     0.989300000000     0.911850000000     0.368774   
C5       C      0.998070000000     0.078590000000     0.995700000000     0.36552    
C6       C      0.913370000000     0.991830000000     0.998580000000     0.368734   
C7       C      0.999890000000     0.999320000000     0.411680000000     0.369669   
C8       C      0.086630000000     0.995670000000     0.497560000000     0.369743   
C9       C      0.000890000000     0.082330000000     0.499030000000     0.368535   
C10      C      0.000590000000     0.994830000000     0.583790000000     0.367358   
C11      C      0.001500000000     0.910250000000     0.495330000000     0.370869   
C12      C      0.914550000000     0.995650000000     0.498680000000     0.367834   
C13      C      0.992950000000     0.489070000000     0.082850000000     0.368461   
C14      C      0.081150000000     0.491320000000     0.998350000000     0.369572   
C15      C      0.994040000000     0.406580000000     0.993210000000     0.368152   
C16      C      0.996950000000     0.495740000000     0.910830000000     0.368232   
C17      C      0.996740000000     0.578590000000     0.999780000000     0.365575   
C18      C      0.908870000000     0.494280000000     0.994520000000     0.368407   
C19      C      0.995580000000     0.410220000000     0.498210000000     0.370617   
C20      C      0.995400000000     0.495170000000     0.410920000000     0.366351   
C21      C      0.909540000000     0.496300000000     0.496880000000     0.37115    
C22      C      0.995610000000     0.582370000000     0.496750000000     0.366995   
C23      C      0.081650000000     0.496700000000     0.496930000000     0.367081   
C24      C      0.995220000000     0.496170000000     0.583040000000     0.37089    
C25      C      0.413510000000     0.000050000000     0.996350000000     0.367918   
C26      C      0.497750000000     0.002000000000     0.083870000000     0.370989   
C27      C      0.499820000000     0.914580000000     0.999420000000     0.366011   
C28      C      0.585530000000     0.000870000000     0.999020000000     0.367372   
C29      C      0.499060000000     0.086560000000     0.996340000000     0.367124   
C30      C      0.500960000000     0.999210000000     0.911680000000     0.367813   
C31      C      0.414530000000     0.002160000000     0.497670000000     0.368451   
C32      C      0.500540000000     0.999150000000     0.411730000000     0.368291   
C33      C      0.501690000000     0.087570000000     0.495420000000     0.370841   
C34      C      0.586680000000     0.001750000000     0.498140000000     0.370724   
C35      C      0.500240000000     0.915540000000     0.499900000000     0.367607   
C36      C      0.499660000000     0.003460000000     0.583790000000     0.37019    
C37      C      0.408790000000     0.501090000000     0.999670000000     0.368069   
C38      C      0.493770000000     0.414470000000     0.999040000000     0.369382   
C39      C      0.494710000000     0.501790000000     0.913050000000     0.370001   
C40      C      0.580790000000     0.498970000000     0.999340000000     0.365718   
C41      C      0.494520000000     0.500640000000     0.085390000000     0.370574   
C42      C      0.495810000000     0.586670000000     0.998850000000     0.369026   
C43      C      0.409630000000     0.498720000000     0.500900000000     0.370197   
C44      C      0.497280000000     0.415520000000     0.498220000000     0.36833    
C45      C      0.494600000000     0.502910000000     0.413160000000     0.36814    
C46      C      0.581740000000     0.503180000000     0.497190000000     0.368057   
C47      C      0.498030000000     0.501100000000     0.585080000000     0.367804   
C48      C      0.493270000000     0.587630000000     0.499620000000     0.369708   
C49      C      0.478990000000     0.523180000000     0.831290000000    -0.129545   
C50      C      0.480330000000     0.480790000000     0.633160000000     0.0698966  
C51      C      0.517970000000     0.520630000000     0.632630000000     0.069957   
C52      C      0.480650000000     0.480320000000     0.665450000000    -0.0908996  
C53      C      0.498940000000     0.472930000000     0.732910000000    -0.0371064  
C54      C      0.498420000000     0.473220000000     0.765240000000    -0.0323684  
C55      C      0.500140000000     0.500760000000     0.716130000000    -0.00497185 
C56      C      0.518820000000     0.520800000000     0.664930000000    -0.0904563  
C57      C      0.498980000000     0.501350000000     0.781510000000    -0.0132692  
C58      C      0.514720000000     0.480880000000     0.833400000000    -0.100974   
C59      C      0.500460000000     0.529160000000     0.764730000000    -0.0323966  
C60      C      0.513170000000     0.481710000000     0.865580000000     0.0728906  
C61      C      0.477700000000     0.523830000000     0.863820000000     0.149976   
C62      C      0.501060000000     0.528860000000     0.732430000000    -0.0372497  
C63      C      0.499980000000     0.500530000000     0.681760000000     0.0479699  
C64      C      0.497570000000     0.501770000000     0.815850000000     0.0646199  
C65      C      0.457310000000     0.548540000000     0.878100000000    -0.219545   
C66      C      0.474770000000     0.483450000000     0.167250000000    -0.129753   
C67      C      0.515180000000     0.485990000000     0.364920000000     0.070032   
C68      C      0.474430000000     0.522660000000     0.365780000000     0.0698786  
C69      C      0.515730000000     0.486720000000     0.332650000000    -0.0906337  
C70      C      0.522930000000     0.506670000000     0.265550000000    -0.0371019  
C71      C      0.522810000000     0.506350000000     0.233230000000    -0.0322853  
C72      C      0.494990000000     0.506320000000     0.282190000000    -0.0050358  
C73      C      0.474260000000     0.523830000000     0.333500000000    -0.0910233  
C74      C      0.494750000000     0.505470000000     0.216850000000    -0.0134032  
C75      C      0.514160000000     0.522340000000     0.164930000000    -0.100965   
C76      C      0.466820000000     0.505470000000     0.233500000000    -0.0323899  
C77      C      0.513500000000     0.520520000000     0.132750000000     0.0728922  
C78      C      0.474480000000     0.481660000000     0.134750000000     0.150366   
C79      C      0.466940000000     0.505950000000     0.265790000000    -0.0372785  
C80      C      0.495080000000     0.505740000000     0.316530000000     0.0480763  
C81      C      0.494550000000     0.503840000000     0.182550000000     0.0648739  
C82      C      0.452340000000     0.458370000000     0.120670000000    -0.219954   
C83      C      0.473640000000     0.669560000000     0.482450000000    -0.12955    
C84      C      0.519200000000     0.867790000000     0.520040000000     0.0700803  
C85      C      0.479740000000     0.867660000000     0.481990000000     0.0702217  
C86      C      0.518800000000     0.835490000000     0.521140000000    -0.0902905  
C87      C      0.524780000000     0.767210000000     0.504470000000    -0.0370005  
C88      C      0.523800000000     0.734900000000     0.504360000000    -0.0320549  
C89      C      0.497320000000     0.784570000000     0.503200000000    -0.00471407 
C90      C      0.478670000000     0.835420000000     0.482580000000    -0.090475   
C91      C      0.495340000000     0.719210000000     0.503040000000    -0.0131722  
C92      C      0.513900000000     0.667140000000     0.520440000000    -0.100934   
C93      C      0.467890000000     0.736600000000     0.502230000000    -0.0321787  
C94      C      0.512730000000     0.634970000000     0.519020000000     0.0731894  
C95      C      0.472660000000     0.637030000000     0.481270000000     0.151272   
C96      C      0.468860000000     0.768880000000     0.502280000000    -0.0373094  
C97      C      0.498290000000     0.818900000000     0.502350000000     0.0480544  
C98      C      0.494270000000     0.684850000000     0.502030000000     0.0649662  
C99      C      0.449370000000     0.622930000000     0.459160000000    -0.221889   
C100     C      0.520990000000     0.169070000000     0.476060000000    -0.129653   
C101     C      0.478860000000     0.367290000000     0.517510000000     0.0696537  
C102     C      0.516670000000     0.368130000000     0.477820000000     0.0700051  
C103     C      0.478870000000     0.335000000000     0.517410000000    -0.0908618  
C104     C      0.497030000000     0.267570000000     0.524410000000    -0.0372677  
C105     C      0.497510000000     0.235260000000     0.524010000000    -0.0324565  
C106     C      0.498540000000     0.284480000000     0.496670000000    -0.00499197 
C107     C      0.517260000000     0.335850000000     0.477140000000    -0.0905134  
C108     C      0.499580000000     0.219110000000     0.495880000000    -0.0134842  
C109     C      0.481120000000     0.167490000000     0.514510000000    -0.101489   
C110     C      0.500970000000     0.236000000000     0.468150000000    -0.0324251  
C111     C      0.482270000000     0.135310000000     0.513800000000     0.0727773  
C112     C      0.522040000000     0.136530000000     0.475680000000     0.149985   
C113     C      0.500440000000     0.268300000000     0.468530000000    -0.0374057  
C114     C      0.498210000000     0.318850000000     0.497080000000     0.0478779  
C115     C      0.500520000000     0.184770000000     0.495460000000     0.064676   
C116     C      0.545570000000     0.121940000000     0.454150000000    -0.219851   
C117     C      0.479130000000     0.668620000000     0.979250000000    -0.130754   
C118     C      0.518390000000     0.867130000000     0.020540000000     0.0703532  
C119     C      0.480920000000     0.866400000000     0.980540000000     0.0696647  
C120     C      0.518390000000     0.834840000000     0.021700000000    -0.0902058  
C121     C      0.526260000000     0.766600000000     0.006220000000    -0.0369076  
C122     C      0.525810000000     0.734270000000     0.006150000000    -0.0322155  
C123     C      0.498700000000     0.783540000000     0.002770000000    -0.00400974 
C124     C      0.480360000000     0.834130000000     0.981090000000    -0.0910748  
C125     C      0.497810000000     0.718160000000     0.002560000000    -0.0125399  
C126     C      0.515210000000     0.666080000000     0.021230000000    -0.101314   
C127     C      0.470220000000     0.735090000000     0.999610000000    -0.0331257  
C128     C      0.514240000000     0.633890000000     0.019570000000     0.0740485  
C129     C      0.478640000000     0.636120000000     0.977570000000     0.150678   
C130     C      0.470660000000     0.767380000000     0.999730000000    -0.0379357  
C131     C      0.499170000000     0.817910000000     0.001880000000     0.0488224  
C132     C      0.497340000000     0.683830000000     0.001130000000     0.0658972  
C133     C      0.459140000000     0.622140000000     0.951990000000    -0.220158   
C134     C      0.475710000000     0.332500000000     0.017570000000    -0.128412   
C135     C      0.517920000000     0.134390000000     0.976380000000     0.0697824  
C136     C      0.479010000000     0.134350000000     0.014990000000     0.0705362  
C137     C      0.517690000000     0.166690000000     0.975600000000    -0.0899901  
C138     C      0.524490000000     0.234740000000     0.992200000000    -0.0371124  
C139     C      0.523820000000     0.267060000000     0.992530000000    -0.0324709  
C140     C      0.496940000000     0.217600000000     0.994440000000    -0.00473317 
C141     C      0.478190000000     0.166620000000     0.014790000000    -0.0897475  
C142     C      0.495590000000     0.282960000000     0.995160000000    -0.0130584  
C143     C      0.513330000000     0.335030000000     0.976970000000    -0.100627   
C144     C      0.468030000000     0.265830000000     0.997010000000    -0.0326535  
C145     C      0.512280000000     0.367200000000     0.978560000000     0.0726096  
C146     C      0.474960000000     0.365020000000     0.019050000000     0.15064    
C147     C      0.468690000000     0.233550000000     0.996630000000    -0.0374657  
C148     C      0.497620000000     0.183230000000     0.994910000000     0.0469774  
C149     C      0.494860000000     0.317290000000     0.996500000000     0.0636504  
C150     C      0.453620000000     0.379020000000     0.043100000000    -0.220031   
C151     C      0.479220000000     0.020800000000     0.665480000000    -0.129913   
C152     C      0.521190000000     0.017820000000     0.863890000000     0.0706004  
C153     C      0.481880000000     0.979610000000     0.863820000000     0.0701491  
C154     C      0.521670000000     0.017990000000     0.831600000000    -0.0901606  
C155     C      0.529220000000     0.000270000000     0.763870000000    -0.0364594  
C156     C      0.528880000000     0.000970000000     0.731550000000    -0.0323734  
C157     C      0.501410000000     0.999030000000     0.780660000000    -0.00527964 
C158     C      0.481690000000     0.979290000000     0.831520000000    -0.09041    
C159     C      0.500720000000     0.000620000000     0.715330000000    -0.0128062  
C160     C      0.520710000000     0.984130000000     0.663550000000    -0.101401   
C161     C      0.472920000000     0.999270000000     0.732120000000    -0.0327956  
C162     C      0.519740000000     0.985330000000     0.631370000000     0.0730705  
C163     C      0.478510000000     0.021840000000     0.632940000000     0.151455   
C164     C      0.473260000000     0.998430000000     0.764410000000    -0.0368791  
C165     C      0.501680000000     0.998670000000     0.815010000000     0.0479897  
C166     C      0.500270000000     0.001870000000     0.681000000000     0.0653519  
C167     C      0.454450000000     0.042910000000     0.618550000000    -0.22203    
C168     C      0.477110000000     0.019170000000     0.165550000000    -0.130083   
C169     C      0.520430000000     0.017140000000     0.363600000000     0.0699389  
C170     C      0.480650000000     0.979420000000     0.364240000000     0.0698799  
C171     C      0.520590000000     0.017040000000     0.331320000000    -0.0910076  
C172     C      0.527470000000     0.998770000000     0.263790000000    -0.0370845  
C173     C      0.526970000000     0.999310000000     0.231480000000    -0.0326543  
C174     C      0.499740000000     0.997840000000     0.280730000000    -0.00502015 
C175     C      0.480140000000     0.978830000000     0.331950000000    -0.0905371  
C176     C      0.498730000000     0.999080000000     0.215400000000    -0.0136641  
C177     C      0.518580000000     0.982470000000     0.163620000000    -0.101628   
C178     C      0.471000000000     0.997990000000     0.232340000000    -0.032251   
C179     C      0.517660000000     0.983730000000     0.131450000000     0.0733046  
C180     C      0.476450000000     0.020260000000     0.133000000000     0.15169    
C181     C      0.471500000000     0.997330000000     0.264640000000    -0.0373051  
C182     C      0.500230000000     0.997810000000     0.315080000000     0.0476959  
C183     C      0.498150000000     0.000230000000     0.181070000000     0.0658388  
C184     C      0.452500000000     0.041440000000     0.118600000000    -0.222226   
C185     C      0.827650000000     0.477150000000     0.514430000000    -0.129463   
C186     C      0.629970000000     0.523150000000     0.515070000000     0.0701367  
C187     C      0.629130000000     0.483790000000     0.476920000000     0.0703198  
C188     C      0.662290000000     0.523310000000     0.514760000000    -0.0903707  
C189     C      0.730100000000     0.529690000000     0.496390000000    -0.0370642  
C190     C      0.762420000000     0.528690000000     0.496470000000    -0.0322371  
C191     C      0.712730000000     0.502220000000     0.495160000000    -0.00486647 
C192     C      0.661380000000     0.483310000000     0.476080000000    -0.0905879  
C193     C      0.778060000000     0.500210000000     0.495490000000    -0.0132969  
C194     C      0.830080000000     0.519310000000     0.478540000000    -0.100923   
C195     C      0.760680000000     0.472780000000     0.494150000000    -0.0324016  
C196     C      0.862250000000     0.517540000000     0.479280000000     0.072912   
C197     C      0.860150000000     0.475530000000     0.514890000000     0.14948    
C198     C      0.728410000000     0.473780000000     0.493980000000    -0.0372721  
C199     C      0.678390000000     0.503090000000     0.495240000000     0.0481152  
C200     C      0.812380000000     0.498970000000     0.496190000000     0.0645731  
C201     C      0.874200000000     0.450380000000     0.534910000000    -0.21833    
C202     C      0.328310000000     0.476840000000     0.518280000000    -0.129922   
C203     C      0.129300000000     0.516960000000     0.515830000000     0.0700451  
C204     C      0.129660000000     0.477510000000     0.477770000000     0.0700253  
C205     C      0.161590000000     0.517590000000     0.516090000000    -0.0904777  
C206     C      0.229180000000     0.525740000000     0.498330000000    -0.0372371  
C207     C      0.261500000000     0.525770000000     0.498920000000    -0.0322419  
C208     C      0.212700000000     0.497730000000     0.497140000000    -0.00482515 
C209     C      0.161960000000     0.477460000000     0.477540000000    -0.0904444  
C210     C      0.278060000000     0.497810000000     0.498470000000    -0.0134882  
C211     C      0.329490000000     0.518580000000     0.481850000000    -0.101547   
C212     C      0.261570000000     0.469820000000     0.497170000000    -0.0322185  
C213     C      0.361690000000     0.518090000000     0.482950000000     0.0728837  
C214     C      0.360860000000     0.476590000000     0.519180000000     0.151172   
C215     C      0.229270000000     0.469780000000     0.496460000000    -0.0373237  
C216     C      0.178340000000     0.497640000000     0.496850000000     0.0479497  
C217     C      0.312400000000     0.497780000000     0.499550000000     0.0649273  
C218     C      0.375700000000     0.452550000000     0.539960000000    -0.221909   
C219     C      0.827520000000     0.513290000000     0.974290000000    -0.129685   
C220     C      0.629220000000     0.516570000000     0.019080000000     0.070289   
C221     C      0.628040000000     0.478660000000     0.979520000000     0.069641   
C222     C      0.661540000000     0.516010000000     0.019200000000    -0.0894042  
C223     C      0.729050000000     0.496690000000     0.025840000000    -0.0364196  
C224     C      0.761390000000     0.496250000000     0.025100000000    -0.03151    
C225     C      0.711870000000     0.495920000000     0.998240000000    -0.00546507 
C226     C      0.660300000000     0.477600000000     0.978970000000    -0.0903043  
C227     C      0.777260000000     0.495220000000     0.996740000000    -0.014025   
C228     C      0.828760000000     0.477090000000     0.016220000000    -0.100378   
C229     C      0.760060000000     0.494380000000     0.969170000000    -0.0322253  
C230     C      0.860970000000     0.477230000000     0.014850000000     0.0733828  
C231     C      0.860060000000     0.513120000000     0.973060000000     0.150978   
C232     C      0.727760000000     0.494700000000     0.969910000000    -0.0372634  
C233     C      0.677490000000     0.496460000000     0.998900000000     0.0470281  
C234     C      0.811630000000     0.495230000000     0.995830000000     0.0639944  
C235     C      0.874820000000     0.532770000000     0.948050000000    -0.221861   
C236     C      0.163320000000     0.474590000000     0.979540000000    -0.129734   
C237     C      0.361180000000     0.482320000000     0.020090000000     0.070277   
C238     C      0.360760000000     0.519890000000     0.980160000000     0.0695405  
C239     C      0.328910000000     0.481930000000     0.020650000000    -0.0921263  
C240     C      0.261140000000     0.499480000000     0.028150000000    -0.0378222  
C241     C      0.228830000000     0.498180000000     0.027970000000    -0.0313289  
C242     C      0.277810000000     0.500110000000     0.000240000000    -0.00442233 
C243     C      0.328460000000     0.519930000000     0.979990000000    -0.0927158  
C244     C      0.212530000000     0.497260000000     0.999870000000    -0.0145702  
C245     C      0.160320000000     0.512990000000     0.019380000000    -0.100226   
C246     C      0.229190000000     0.498110000000     0.971970000000    -0.0320316  
C247     C      0.128170000000     0.510850000000     0.018460000000     0.0734277  
C248     C      0.130840000000     0.472370000000     0.979110000000     0.150323   
C249     C      0.261460000000     0.499610000000     0.972150000000    -0.0386792  
C250     C      0.312140000000     0.500780000000     0.000380000000     0.0488421  
C251     C      0.178260000000     0.494990000000     0.999590000000     0.0640628  
C252     C      0.117130000000     0.448760000000     0.957090000000    -0.220343   
C253     C      0.977730000000     0.476120000000     0.664730000000    -0.129421   
C254     C      0.979280000000     0.516930000000     0.863090000000     0.068974   
C255     C      0.016970000000     0.477110000000     0.863020000000     0.0694333  
C256     C      0.979610000000     0.517850000000     0.830800000000    -0.0910966  
C257     C      0.998140000000     0.525690000000     0.763210000000    -0.0372189  
C258     C      0.997790000000     0.525510000000     0.730880000000    -0.0327493  
C259     C      0.998940000000     0.497780000000     0.779880000000    -0.00541664 
C260     C      0.017800000000     0.477370000000     0.830760000000    -0.0912004  
C261     C      0.998030000000     0.497410000000     0.714540000000    -0.0132845  
C262     C      0.014730000000     0.517320000000     0.662750000000    -0.100349   
C263     C      0.999030000000     0.469530000000     0.731220000000    -0.0328486  
C264     C      0.013560000000     0.516270000000     0.630550000000     0.0730531  
C265     C      0.976730000000     0.475300000000     0.632220000000     0.149483   
C266     C      0.999500000000     0.469710000000     0.763500000000    -0.0375397  
C267     C      0.998910000000     0.497800000000     0.814220000000     0.0472007  
C268     C      0.996820000000     0.497030000000     0.680220000000     0.0639429  
C269     C      0.955470000000     0.451340000000     0.617910000000    -0.218465   
C270     C      0.974510000000     0.468160000000     0.164220000000    -0.129414   
C271     C      0.976100000000     0.514060000000     0.362840000000     0.0697557  
C272     C      0.013880000000     0.474340000000     0.363330000000     0.0701915  
C273     C      0.975480000000     0.513630000000     0.330540000000    -0.0900383  
C274     C      0.992800000000     0.519670000000     0.262610000000    -0.0370755  
C275     C      0.992450000000     0.518830000000     0.230300000000    -0.0323267  
C276     C      0.993910000000     0.492140000000     0.279860000000    -0.00471191 
C277     C      0.013750000000     0.473240000000     0.331040000000    -0.0897338  
C278     C      0.993070000000     0.490440000000     0.214480000000    -0.0131332  
C279     C      0.010780000000     0.510020000000     0.162970000000    -0.100446   
C280     C      0.994100000000     0.462900000000     0.231720000000    -0.0323923  
C281     C      0.010330000000     0.508930000000     0.130790000000     0.0732743  
C282     C      0.974320000000     0.467250000000     0.131640000000     0.150844   
C283     C      0.994570000000     0.463740000000     0.264030000000    -0.0373112  
C284     C      0.994390000000     0.493020000000     0.314220000000     0.0473252  
C285     C      0.992750000000     0.489560000000     0.180110000000     0.0641862  
C286     C      0.954260000000     0.442630000000     0.116810000000    -0.221917   
C287     C      0.021700000000     0.828770000000     0.476940000000    -0.128959   
C288     C      0.976580000000     0.630320000000     0.477260000000     0.0699444  
C289     C      0.015280000000     0.630070000000     0.516080000000     0.0703593  
C290     C      0.976650000000     0.662630000000     0.476830000000    -0.0904506  
C291     C      0.969790000000     0.730560000000     0.494240000000    -0.0370334  
C292     C      0.970570000000     0.762880000000     0.493950000000    -0.032337   
C293     C      0.997340000000     0.713380000000     0.495960000000    -0.00532206 
C294     C      0.016000000000     0.662340000000     0.516170000000    -0.0901168  
C295     C      0.998930000000     0.778720000000     0.495210000000    -0.0136372  
C296     C      0.979160000000     0.830350000000     0.512420000000    -0.100802   
C297     C      0.026460000000     0.761530000000     0.496890000000    -0.0319759  
C298     C      0.980590000000     0.862530000000     0.512070000000     0.072546   
C299     C      0.022980000000     0.861300000000     0.476880000000     0.150059   
C300     C      0.025680000000     0.729250000000     0.497300000000    -0.0368802  
C301     C      0.996590000000     0.679040000000     0.496360000000     0.0476357  
C302     C      0.999850000000     0.813070000000     0.494780000000     0.0641119  
C303     C      0.048320000000     0.875900000000     0.457540000000    -0.219907   
C304     C      0.976560000000     0.328660000000     0.517410000000    -0.129417   
C305     C      0.021060000000     0.130300000000     0.517390000000     0.069874   
C306     C      0.980960000000     0.130000000000     0.480010000000     0.0693331  
C307     C      0.021320000000     0.162630000000     0.517420000000    -0.0906119  
C308     C      0.027880000000     0.230470000000     0.499080000000    -0.0375741  
C309     C      0.027180000000     0.262810000000     0.499000000000    -0.0318092  
C310     C      0.000240000000     0.213350000000     0.498480000000    -0.00451759 
C311     C      0.980570000000     0.162250000000     0.479520000000    -0.0916076  
C312     C      0.998820000000     0.278700000000     0.498490000000    -0.0140441  
C313     C      0.018000000000     0.330400000000     0.480670000000    -0.100493   
C314     C      0.971210000000     0.261550000000     0.497850000000    -0.0322884  
C315     C      0.016430000000     0.362590000000     0.481040000000     0.0728801  
C316     C      0.975200000000     0.361170000000     0.517580000000     0.14873    
C317     C      0.971920000000     0.229280000000     0.497840000000    -0.0381638  
C318     C      0.000820000000     0.179000000000     0.498420000000     0.0481847  
C319     C      0.997880000000     0.313040000000     0.498890000000     0.0639695  
C320     C      0.950870000000     0.375610000000     0.538330000000    -0.217543   
C321     C      0.668660000000     0.020940000000     0.481000000000    -0.129788   
C322     C      0.866880000000     0.975630000000     0.517910000000     0.0697966  
C323     C      0.866580000000     0.016060000000     0.480880000000     0.0700971  
C324     C      0.834580000000     0.975710000000     0.518860000000    -0.0903158  
C325     C      0.766310000000     0.969750000000     0.502150000000    -0.0372183  
C326     C      0.733980000000     0.970600000000     0.502140000000    -0.0319475  
C327     C      0.783560000000     0.997310000000     0.501400000000    -0.00510034 
C328     C      0.834320000000     0.016790000000     0.481320000000    -0.0905975  
C329     C      0.718200000000     0.999010000000     0.501400000000    -0.0141452  
C330     C      0.666080000000     0.980280000000     0.518560000000    -0.101395   
C331     C      0.735480000000     0.026550000000     0.501160000000    -0.0318586  
C332     C      0.633900000000     0.981690000000     0.517260000000     0.0728126  
C333     C      0.636150000000     0.022250000000     0.480020000000     0.150511   
C334     C      0.767750000000     0.025710000000     0.501140000000    -0.037214   
C335     C      0.817900000000     0.996550000000     0.500530000000     0.0476483  
C336     C      0.683860000000     0.000030000000     0.500330000000     0.0656332  
C337     C      0.622180000000     0.046470000000     0.458850000000    -0.219766   
C338     C      0.168460000000     0.976270000000     0.479930000000    -0.129537   
C339     C      0.366710000000     0.022120000000     0.516570000000     0.069645   
C340     C      0.366710000000     0.981660000000     0.479590000000     0.0698253  
C341     C      0.334410000000     0.021970000000     0.517350000000    -0.090888   
C342     C      0.266220000000     0.027710000000     0.500450000000    -0.037389   
C343     C      0.233890000000     0.026790000000     0.500500000000    -0.0318569  
C344     C      0.283530000000     0.000200000000     0.499720000000    -0.00455059 
C345     C      0.334450000000     0.980840000000     0.479860000000    -0.0909693  
C346     C      0.218180000000     0.998330000000     0.499850000000    -0.0137037  
C347     C      0.166190000000     0.017020000000     0.517420000000    -0.100605   
C348     C      0.235520000000     0.970840000000     0.499530000000    -0.0321579  
C349     C      0.134010000000     0.015620000000     0.516380000000     0.0731     
C350     C      0.135940000000     0.974960000000     0.479250000000     0.150133   
C351     C      0.267790000000     0.971760000000     0.499440000000    -0.0379245  
C352     C      0.317870000000     0.001060000000     0.498960000000     0.0481335  
C353     C      0.183820000000     0.997250000000     0.499070000000     0.0643779  
C354     C      0.121770000000     0.950610000000     0.458360000000    -0.219731   
C355     C      0.981020000000     0.825250000000     0.023590000000    -0.130664   
C356     C      0.979340000000     0.627220000000     0.980600000000     0.0690071  
C357     C      0.016440000000     0.625570000000     0.020930000000     0.0699776  
C358     C      0.980010000000     0.659490000000     0.980720000000    -0.0914682  
C359     C      0.000150000000     0.726440000000     0.974040000000    -0.038655   
C360     C      0.000410000000     0.758750000000     0.974410000000    -0.0322807  
C361     C      0.000180000000     0.709570000000     0.001840000000    -0.00342721 
C362     C      0.017580000000     0.657860000000     0.021730000000    -0.0897875  
C363     C      0.000590000000     0.774930000000     0.002600000000    -0.0134797  
C364     C      0.018360000000     0.826320000000     0.982660000000    -0.103283   
C365     C      0.000860000000     0.758070000000     0.030400000000    -0.0320338  
C366     C      0.017380000000     0.858520000000     0.983150000000     0.0723597  
C367     C      0.980210000000     0.857810000000     0.023820000000     0.14993    
C368     C      0.000710000000     0.725760000000     0.030020000000    -0.0378154  
C369     C      0.999300000000     0.675230000000     0.001410000000     0.0474185  
C370     C      0.000070000000     0.809290000000     0.002990000000     0.0662347  
C371     C      0.958720000000     0.872700000000     0.047200000000    -0.219971   
C372     C      0.011150000000     0.325210000000     0.971520000000    -0.128957   
C373     C      0.977110000000     0.125580000000     0.975870000000     0.069396   
C374     C      0.015750000000     0.127240000000     0.014720000000     0.0705867  
C375     C      0.975660000000     0.157840000000     0.975350000000    -0.0900777  
C376     C      0.991800000000     0.225700000000     0.966410000000    -0.0374039  
C377     C      0.991390000000     0.258000000000     0.965920000000    -0.0325155  
C378     C      0.993570000000     0.209610000000     0.994590000000    -0.00548675 
C379     C      0.014790000000     0.159530000000     0.014870000000    -0.0889078  
C380     C      0.992640000000     0.274990000000     0.993620000000    -0.0140476  
C381     C      0.975290000000     0.326520000000     0.013750000000    -0.100282   
C382     C      0.994040000000     0.258910000000     0.021840000000    -0.0317284  
C383     C      0.976020000000     0.358740000000     0.012840000000     0.0726772  
C384     C      0.011600000000     0.357750000000     0.970780000000     0.14981    
C385     C      0.994590000000     0.226580000000     0.022310000000    -0.0365678  
C386     C      0.994620000000     0.175250000000     0.995010000000     0.0463933  
C387     C      0.992990000000     0.309350000000     0.992990000000     0.0629839  
C388     C      0.031410000000     0.372490000000     0.945870000000    -0.219936   
C389     C      0.831580000000     0.973750000000     0.017630000000    -0.128643   
C390     C      0.633600000000     0.019900000000     0.979870000000     0.0701555  
C391     C      0.633110000000     0.981360000000     0.018850000000     0.0705794  
C392     C      0.665900000000     0.019840000000     0.979630000000    -0.0903379  
C393     C      0.733100000000     0.001150000000     0.971290000000    -0.0363423  
C394     C      0.765410000000     0.000000000000     0.971150000000    -0.0321365  
C395     C      0.716600000000     0.999410000000     0.999260000000    -0.00634042 
C396     C      0.665390000000     0.980700000000     0.019180000000    -0.0899592  
C397     C      0.781940000000     0.997020000000     0.998970000000    -0.0139995  
C398     C      0.833850000000     0.014180000000     0.979800000000    -0.100368   
C399     C      0.765460000000     0.995540000000     0.026950000000    -0.0317626  
C400     C      0.866010000000     0.012160000000     0.980160000000     0.0730965  
C401     C      0.864070000000     0.971700000000     0.017510000000     0.151054   
C402     C      0.733180000000     0.996750000000     0.027100000000    -0.0361643  
C403     C      0.682230000000     0.000050000000     0.999390000000     0.0481042  
C404     C      0.816250000000     0.995050000000     0.998840000000     0.0636432  
C405     C      0.878220000000     0.946770000000     0.037710000000    -0.220476   
C406     C      0.167180000000     0.975130000000     0.975380000000    -0.128974   
C407     C      0.365350000000     0.019250000000     0.015080000000     0.0704892  
C408     C      0.366020000000     0.980090000000     0.976730000000     0.0697335  
C409     C      0.333050000000     0.019200000000     0.015170000000    -0.089732   
C410     C      0.265710000000     0.000570000000     0.023200000000    -0.0351476  
C411     C      0.233400000000     0.999770000000     0.023020000000    -0.0328529  
C412     C      0.282460000000     0.998730000000     0.995390000000    -0.00635003 
C413     C      0.333730000000     0.979490000000     0.976190000000    -0.0903947  
C414     C      0.217080000000     0.997090000000     0.995030000000    -0.0132812  
C415     C      0.165260000000     0.014820000000     0.013990000000    -0.0994222  
C416     C      0.233830000000     0.995490000000     0.967210000000    -0.0328236  
C417     C      0.133080000000     0.013190000000     0.013490000000     0.073591   
C418     C      0.134640000000     0.973810000000     0.974990000000     0.149879   
C419     C      0.266130000000     0.996280000000     0.967390000000    -0.0368941  
C420     C      0.316820000000     0.999170000000     0.995570000000     0.0469854  
C421     C      0.182720000000     0.995690000000     0.994830000000     0.0631405  
C422     C      0.120250000000     0.951070000000     0.952500000000    -0.219901   
C423     C      0.017420000000     0.968780000000     0.830360000000    -0.12873    
C424     C      0.018690000000     0.014170000000     0.632180000000     0.0700159  
C425     C      0.981210000000     0.974190000000     0.631080000000     0.0694279  
C426     C      0.018500000000     0.014010000000     0.664490000000    -0.0892919  
C427     C      0.999620000000     0.020210000000     0.732080000000    -0.0365813  
C428     C      0.999410000000     0.019420000000     0.764400000000    -0.0328564  
C429     C      0.999010000000     0.992640000000     0.714850000000    -0.00514536 
C430     C      0.980510000000     0.973370000000     0.663350000000    -0.0900371  
C431     C      0.998730000000     0.991030000000     0.780230000000    -0.013136   
C432     C      0.980940000000     0.010450000000     0.831850000000    -0.100333   
C433     C      0.998050000000     0.963470000000     0.763000000000    -0.0326358  
C434     C      0.981510000000     0.009260000000     0.864050000000     0.072742   
C435     C      0.017770000000     0.967800000000     0.862910000000     0.149837   
C436     C      0.998150000000     0.964270000000     0.730700000000    -0.0372127  
C437     C      0.999310000000     0.993400000000     0.680490000000     0.0469789  
C438     C      0.999010000000     0.990100000000     0.814600000000     0.0634442  
C439     C      0.038400000000     0.943500000000     0.877540000000    -0.219722   
C440     C      0.983680000000     0.021080000000     0.330120000000    -0.130296   
C441     C      0.983020000000     0.977040000000     0.132370000000     0.0691895  
C442     C      0.021920000000     0.015660000000     0.130960000000     0.0700327  
C443     C      0.983360000000     0.977260000000     0.164640000000    -0.0919375  
C444     C      0.002310000000     0.970150000000     0.231870000000    -0.0372502  
C445     C      0.002030000000     0.970750000000     0.264180000000    -0.0324452  
C446     C      0.003760000000     0.997810000000     0.214840000000    -0.00551385 
C447     C      0.022760000000     0.016550000000     0.163250000000    -0.0904706  
C448     C      0.003070000000     0.999010000000     0.280180000000    -0.0139689  
C449     C      0.019480000000     0.978820000000     0.331880000000    -0.102157   
C450     C      0.004740000000     0.026660000000     0.263150000000    -0.0320518  
C451     C      0.018210000000     0.979610000000     0.364050000000     0.0731034  
C452     C      0.982660000000     0.021670000000     0.362670000000     0.151219   
C453     C      0.005150000000     0.026060000000     0.230840000000    -0.0370329  
C454     C      0.003360000000     0.997180000000     0.180500000000     0.0480626  
C455     C      0.002110000000     0.999650000000     0.314510000000     0.0651911  
C456     C      0.962480000000     0.046380000000     0.377210000000    -0.222007   
H1       H      0.532970000000     0.536700000000     0.620570000000     0.0296459  
H2       H      0.527070000000     0.464810000000     0.877820000000     0.0292792  
H3       H      0.501700000000     0.550720000000     0.720220000000     0.038263   
H4       H      0.497050000000     0.451410000000     0.777480000000     0.0370232  
H5       H      0.529660000000     0.464090000000     0.822350000000     0.0554485  
H6       H      0.498550000000     0.450870000000     0.721060000000     0.0384552  
H7       H      0.465220000000     0.539290000000     0.817910000000     0.0604448  
H8       H      0.534400000000     0.536570000000     0.676590000000     0.0529258  
H9       H      0.465400000000     0.464540000000     0.677520000000     0.0522822  
H10      H      0.501290000000     0.551210000000     0.776580000000     0.0361796  
H11      H      0.464850000000     0.464840000000     0.621540000000     0.0277356  
H12      H      0.471240000000     0.563780000000     0.893370000000     0.0869516  
H13      H      0.446620000000     0.563830000000     0.860420000000     0.0704413  
H14      H      0.438010000000     0.537690000000     0.891090000000     0.0907475  
H15      H      0.457980000000     0.537120000000     0.377980000000     0.0274976  
H16      H      0.529170000000     0.535720000000     0.120420000000     0.0294078  
H17      H      0.445040000000     0.505420000000     0.277930000000     0.0382941  
H18      H      0.544700000000     0.506170000000     0.221050000000     0.0371978  
H19      H      0.529740000000     0.538600000000     0.175920000000     0.0555944  
H20      H      0.544920000000     0.507280000000     0.277530000000     0.038762   
H21      H      0.459820000000     0.468530000000     0.180760000000     0.0606176  
H22      H      0.458110000000     0.539080000000     0.321940000000     0.0524808  
H23      H      0.531940000000     0.472060000000     0.320410000000     0.0529893  
H24      H      0.444820000000     0.505120000000     0.221520000000     0.0364794  
H25      H      0.531500000000     0.470810000000     0.376400000000     0.0297515  
H26      H      0.465300000000     0.441070000000     0.106810000000     0.0881877  
H27      H      0.439390000000     0.445150000000     0.138500000000     0.0708546  
H28      H      0.434790000000     0.470390000000     0.106300000000     0.0910325  
H29      H      0.464140000000     0.879420000000     0.466270000000     0.0297834  
H30      H      0.528610000000     0.622640000000     0.534000000000     0.0296297  
H31      H      0.447280000000     0.781570000000     0.501840000000     0.038448   
H32      H      0.545390000000     0.722200000000     0.504620000000     0.0372983  
H33      H      0.529990000000     0.678030000000     0.536240000000     0.0554626  
H34      H      0.547080000000     0.778600000000     0.504810000000     0.0388434  
H35      H      0.458560000000     0.683060000000     0.467650000000     0.0607746  
H36      H      0.462780000000     0.823510000000     0.467320000000     0.0528043  
H37      H      0.534170000000     0.823640000000     0.536970000000     0.0529819  
H38      H      0.445560000000     0.725250000000     0.501790000000     0.0362795  
H39      H      0.535320000000     0.879700000000     0.535110000000     0.0295668  
H40      H      0.432550000000     0.608450000000     0.472060000000     0.0924364  
H41      H      0.435630000000     0.640750000000     0.446750000000     0.0727995  
H42      H      0.461460000000     0.609160000000     0.441170000000     0.0930109  
H43      H      0.531880000000     0.380310000000     0.462040000000     0.0295114  
H44      H      0.466390000000     0.123300000000     0.529050000000     0.0274606  
H45      H      0.501100000000     0.280590000000     0.446720000000     0.0381926  
H46      H      0.496830000000     0.222920000000     0.545800000000     0.0366102  
H47      H      0.464690000000     0.178750000000     0.529700000000     0.0546846  
H48      H      0.496020000000     0.279300000000     0.546510000000     0.0382535  
H49      H      0.536580000000     0.182280000000     0.461530000000     0.0602674  
H50      H      0.532900000000     0.324330000000     0.461330000000     0.0524537  
H51      H      0.463450000000     0.322820000000     0.532940000000     0.0519573  
H52      H      0.502090000000     0.224230000000     0.446060000000     0.0363361  
H53      H      0.463420000000     0.378790000000     0.533570000000     0.027325   
H54      H      0.533670000000     0.107920000000     0.436230000000     0.0909639  
H55      H      0.559570000000     0.139480000000     0.441630000000     0.0705884  
H56      H      0.562140000000     0.107600000000     0.467520000000     0.0873321  
H57      H      0.465990000000     0.877930000000     0.964010000000     0.0298466  
H58      H      0.528320000000     0.621450000000     0.036170000000     0.0292165  
H59      H      0.448950000000     0.779690000000     0.997640000000     0.0384243  
H60      H      0.547490000000     0.721890000000     0.008120000000     0.0373909  
H61      H      0.529550000000     0.676970000000     0.038640000000     0.0557377  
H62      H      0.548300000000     0.778320000000     0.008240000000     0.0388623  
H63      H      0.465720000000     0.682180000000     0.962970000000     0.0606553  
H64      H      0.465500000000     0.821990000000     0.964990000000     0.0527076  
H65      H      0.533070000000     0.823270000000     0.038380000000     0.0530396  
H66      H      0.448210000000     0.723360000000     0.997360000000     0.0366204  
H67      H      0.533520000000     0.879280000000     0.036420000000     0.0298717  
H68      H      0.439330000000     0.609250000000     0.962000000000     0.0908004  
H69      H      0.449240000000     0.639990000000     0.936380000000     0.0706339  
H70      H      0.473530000000     0.606850000000     0.937220000000     0.0873138  
H71      H      0.463580000000     0.122520000000     0.030820000000     0.0276815  
H72      H      0.527080000000     0.379600000000     0.962570000000     0.0294199  
H73      H      0.447010000000     0.221080000000     0.997810000000     0.0380366  
H74      H      0.545480000000     0.279590000000     0.991430000000     0.0371901  
H75      H      0.528330000000     0.324150000000     0.960110000000     0.055303   
H76      H      0.546670000000     0.223180000000     0.990880000000     0.0385861  
H77      H      0.461640000000     0.318930000000     0.033270000000     0.0603241  
H78      H      0.462650000000     0.178440000000     0.030480000000     0.0519856  
H79      H      0.532870000000     0.178570000000     0.959610000000     0.0528664  
H80      H      0.445870000000     0.277410000000     0.998510000000     0.036158   
H81      H      0.533730000000     0.122550000000     0.960940000000     0.0298627  
H82      H      0.435440000000     0.393110000000     0.031690000000     0.0909914  
H83      H      0.441410000000     0.361140000000     0.056950000000     0.070827   
H84      H      0.467100000000     0.393170000000     0.059760000000     0.0882534  
H85      H      0.466010000000     0.964210000000     0.875630000000     0.02974    
H86      H      0.536240000000     0.970880000000     0.619220000000     0.0295826  
H87      H      0.451430000000     0.997770000000     0.776670000000     0.0384265  
H88      H      0.550680000000     0.002230000000     0.719260000000     0.0374123  
H89      H      0.537220000000     0.968930000000     0.674690000000     0.0557568  
H90      H      0.551290000000     0.000460000000     0.775710000000     0.0388245  
H91      H      0.463490000000     0.035040000000     0.678830000000     0.0610993  
H92      H      0.466110000000     0.963710000000     0.819600000000     0.053013   
H93      H      0.537270000000     0.033590000000     0.819740000000     0.0531604  
H94      H      0.450860000000     0.998640000000     0.720280000000     0.0366561  
H95      H      0.536920000000     0.033320000000     0.875770000000     0.0298886  
H96      H      0.438460000000     0.029310000000     0.603760000000     0.0927915  
H97      H      0.439870000000     0.054590000000     0.636200000000     0.0728719  
H98      H      0.465900000000     0.061480000000     0.605030000000     0.0927413  
H99      H      0.464710000000     0.964330000000     0.376350000000     0.0296187  
H100     H      0.534170000000     0.969270000000     0.119310000000     0.0296357  
H101     H      0.449730000000     0.996900000000     0.277010000000     0.0383823  
H102     H      0.548710000000     0.000390000000     0.219090000000     0.0373498  
H103     H      0.535070000000     0.967240000000     0.174750000000     0.055745   
H104     H      0.549610000000     0.998870000000     0.275500000000     0.0381166  
H105     H      0.461390000000     0.033430000000     0.178890000000     0.061061   
H106     H      0.464270000000     0.963330000000     0.320310000000     0.0529945  
H107     H      0.536260000000     0.032360000000     0.319190000000     0.0518037  
H108     H      0.448880000000     0.997450000000     0.220620000000     0.0364531  
H109     H      0.536470000000     0.032550000000     0.375180000000     0.0258507  
H110     H      0.436420000000     0.027900000000     0.103860000000     0.0928514  
H111     H      0.438020000000     0.053250000000     0.136240000000     0.0729091  
H112     H      0.464050000000     0.059920000000     0.105030000000     0.0930365  
H113     H      0.616980000000     0.468010000000     0.461690000000     0.029806   
H114     H      0.874640000000     0.534050000000     0.465040000000     0.0293837  
H115     H      0.715740000000     0.452190000000     0.493340000000     0.0383126  
H116     H      0.775170000000     0.550220000000     0.497750000000     0.0371535  
H117     H      0.819130000000     0.536370000000     0.463830000000     0.0555658  
H118     H      0.718700000000     0.551980000000     0.497030000000     0.0386983  
H119     H      0.814140000000     0.461440000000     0.528550000000     0.0601808  
H120     H      0.672890000000     0.467620000000     0.460300000000     0.0529192  
H121     H      0.674540000000     0.538780000000     0.530180000000     0.052986   
H122     H      0.772030000000     0.450490000000     0.493030000000     0.0360538  
H123     H      0.618440000000     0.538990000000     0.530710000000     0.0296217  
H124     H      0.887700000000     0.460830000000     0.554100000000     0.0870285  
H125     H      0.856360000000     0.435400000000     0.545750000000     0.0691603  
H126     H      0.888940000000     0.434900000000     0.520690000000     0.0864228  
H127     H      0.117960000000     0.461540000000     0.462390000000     0.0296346  
H128     H      0.373540000000     0.534880000000     0.468580000000     0.0271963  
H129     H      0.217270000000     0.447810000000     0.495820000000     0.0383935  
H130     H      0.273520000000     0.547710000000     0.500160000000     0.0366399  
H131     H      0.318070000000     0.535020000000     0.466790000000     0.0548354  
H132     H      0.217090000000     0.547670000000     0.498580000000     0.0385282  
H133     H      0.315250000000     0.460810000000     0.532460000000     0.0609196  
H134     H      0.174000000000     0.461900000000     0.462040000000     0.0529559  
H135     H      0.173320000000     0.533310000000     0.531660000000     0.0528685  
H136     H      0.273660000000     0.447890000000     0.496460000000     0.0364422  
H137     H      0.117320000000     0.532710000000     0.531220000000     0.029675   
H138     H      0.388980000000     0.464040000000     0.558690000000     0.0928236  
H139     H      0.358320000000     0.437480000000     0.551430000000     0.0727686  
H140     H      0.390810000000     0.437030000000     0.526180000000     0.0926516  
H141     H      0.615730000000     0.463610000000     0.963680000000     0.0296991  
H142     H      0.872880000000     0.462690000000     0.031450000000     0.0273182  
H143     H      0.715240000000     0.494390000000     0.948220000000     0.0384223  
H144     H      0.773980000000     0.497150000000     0.046730000000     0.0368995  
H145     H      0.817340000000     0.462460000000     0.033050000000     0.0548944  
H146     H      0.717500000000     0.497340000000     0.048050000000     0.038572   
H147     H      0.814480000000     0.527740000000     0.958490000000     0.0608744  
H148     H      0.671670000000     0.461830000000     0.963180000000     0.0528168  
H149     H      0.673920000000     0.531230000000     0.034770000000     0.0528401  
H150     H      0.771570000000     0.493230000000     0.946950000000     0.0363222  
H151     H      0.617850000000     0.532200000000     0.035050000000     0.0295412  
H152     H      0.889930000000     0.518310000000     0.933150000000     0.092198   
H153     H      0.857400000000     0.543440000000     0.932470000000     0.0728051  
H154     H      0.888110000000     0.552020000000     0.958640000000     0.0927951  
H155     H      0.372450000000     0.535100000000     0.964020000000     0.0257049  
H156     H      0.115580000000     0.525810000000     0.034150000000     0.0294507  
H157     H      0.273650000000     0.499800000000     0.950270000000     0.0380193  
H158     H      0.216640000000     0.497340000000     0.049830000000     0.036722   
H159     H      0.171020000000     0.529190000000     0.035210000000     0.0554742  
H160     H      0.273070000000     0.500140000000     0.050160000000     0.0382231  
H161     H      0.177090000000     0.459970000000     0.964530000000     0.0604612  
H162     H      0.316360000000     0.535100000000     0.964150000000     0.052001   
H163     H      0.317190000000     0.466510000000     0.036550000000     0.051773   
H164     H      0.217250000000     0.497740000000     0.949950000000     0.0362342  
H165     H      0.373200000000     0.467190000000     0.036080000000     0.0252781  
H166     H      0.103580000000     0.460570000000     0.938760000000     0.0910058  
H167     H      0.135180000000     0.434890000000     0.945160000000     0.0709125  
H168     H      0.102520000000     0.432030000000     0.969970000000     0.0886951  
H169     H      0.031990000000     0.460870000000     0.874820000000     0.0251983  
H170     H      0.028130000000     0.532610000000     0.618340000000     0.0293567  
H171     H      0.999820000000     0.447810000000     0.775640000000     0.0372682  
H172     H      0.996810000000     0.547350000000     0.718670000000     0.036925   
H173     H      0.030040000000     0.533740000000     0.673870000000     0.0553609  
H174     H      0.998000000000     0.547700000000     0.775170000000     0.0381446  
H175     H      0.963330000000     0.460540000000     0.678100000000     0.060039   
H176     H      0.033370000000     0.461750000000     0.818870000000     0.0514239  
H177     H      0.964380000000     0.533790000000     0.818910000000     0.0519386  
H178     H      0.999580000000     0.447510000000     0.719300000000     0.0358269  
H179     H      0.963820000000     0.532680000000     0.874970000000     0.0270829  
H180     H      0.968940000000     0.435170000000     0.603200000000     0.0868277  
H181     H      0.943660000000     0.436920000000     0.635610000000     0.0691636  
H182     H      0.936970000000     0.462860000000     0.604340000000     0.0873833  
H183     H      0.029300000000     0.458650000000     0.375360000000     0.029767   
H184     H      0.024850000000     0.525580000000     0.118930000000     0.0295073  
H185     H      0.995130000000     0.442100000000     0.276630000000     0.0382739  
H186     H      0.991380000000     0.540450000000     0.217690000000     0.0370898  
H187     H      0.025580000000     0.526720000000     0.174360000000     0.0555125  
H188     H      0.992570000000     0.541940000000     0.274080000000     0.0386881  
H189     H      0.960160000000     0.452280000000     0.177280000000     0.0607186  
H190     H      0.029040000000     0.457220000000     0.319350000000     0.0529757  
H191     H      0.959890000000     0.529090000000     0.318470000000     0.0528841  
H192     H      0.994910000000     0.440660000000     0.220240000000     0.0362796  
H193     H      0.960960000000     0.530290000000     0.374480000000     0.0298217  
H194     H      0.968490000000     0.427480000000     0.101740000000     0.0918634  
H195     H      0.943210000000     0.427270000000     0.134190000000     0.0726726  
H196     H      0.935260000000     0.453590000000     0.103460000000     0.0925082  
H197     H      0.030700000000     0.618130000000     0.531850000000     0.0296407  
H198     H      0.963770000000     0.874560000000     0.526250000000     0.0294235  
H199     H      0.047330000000     0.716700000000     0.498330000000     0.0382817  
H200     H      0.948970000000     0.775470000000     0.492390000000     0.0371194  
H201     H      0.962080000000     0.819070000000     0.526860000000     0.0554158  
H202     H      0.947570000000     0.719020000000     0.493460000000     0.0385828  
H203     H      0.037740000000     0.815580000000     0.462880000000     0.0603341  
H204     H      0.031490000000     0.674110000000     0.531950000000     0.0528355  
H205     H      0.961490000000     0.674620000000     0.460910000000     0.0529032  
H206     H      0.048660000000     0.773050000000     0.498230000000     0.0360533  
H207     H      0.960900000000     0.618570000000     0.461620000000     0.0295851  
H208     H      0.063170000000     0.890850000000     0.472200000000     0.0869458  
H209     H      0.063870000000     0.858380000000     0.446980000000     0.0704522  
H210     H      0.038070000000     0.889320000000     0.438200000000     0.0905809  
H211     H      0.964880000000     0.118060000000     0.464930000000     0.0272935  
H212     H      0.032680000000     0.374700000000     0.466270000000     0.029257   
H213     H      0.950210000000     0.216790000000     0.497680000000     0.0380275  
H214     H      0.048830000000     0.275370000000     0.499750000000     0.0368152  
H215     H      0.034700000000     0.319180000000     0.465740000000     0.0552184  
H216     H      0.050080000000     0.218880000000     0.499290000000     0.0384646  
H217     H      0.961090000000     0.315410000000     0.532030000000     0.0598845  
H218     H      0.964630000000     0.173970000000     0.464150000000     0.0519676  
H219     H      0.037150000000     0.174670000000     0.532640000000     0.0527473  
H220     H      0.949000000000     0.273090000000     0.497110000000     0.0357359  
H221     H      0.037190000000     0.118560000000     0.532580000000     0.0293125  
H222     H      0.934560000000     0.389730000000     0.524400000000     0.0860071  
H223     H      0.936640000000     0.357980000000     0.550470000000     0.068641   
H224     H      0.962060000000     0.389800000000     0.556570000000     0.0861039  
H225     H      0.878280000000     0.032170000000     0.465640000000     0.0276837  
H226     H      0.621450000000     0.965650000000     0.531970000000     0.0293563  
H227     H      0.780340000000     0.047360000000     0.501160000000     0.0381612  
H228     H      0.721350000000     0.948970000000     0.501990000000     0.0370886  
H229     H      0.676940000000     0.963940000000     0.534130000000     0.0555067  
H230     H      0.777800000000     0.947500000000     0.502020000000     0.0386182  
H231     H      0.682210000000     0.036160000000     0.466390000000     0.0603765  
H232     H      0.822340000000     0.032960000000     0.466410000000     0.0519478  
H233     H      0.822800000000     0.959840000000     0.534250000000     0.0528842  
H234     H      0.724040000000     0.048830000000     0.501190000000     0.0358655  
H235     H      0.878860000000     0.959260000000     0.532640000000     0.0295942  
H236     H      0.607130000000     0.062380000000     0.472270000000     0.0874222  
H237     H      0.640050000000     0.061170000000     0.447660000000     0.0704433  
H238     H      0.609020000000     0.035170000000     0.439920000000     0.0910169  
H239     H      0.378530000000     0.965560000000     0.464430000000     0.0295316  
H240     H      0.121690000000     0.031710000000     0.531150000000     0.0293547  
H241     H      0.280440000000     0.950140000000     0.499450000000     0.0382408  
H242     H      0.221220000000     0.048390000000     0.500400000000     0.0369391  
H243     H      0.177170000000     0.033390000000     0.532870000000     0.0551964  
H244     H      0.277640000000     0.050000000000     0.500310000000     0.0384834  
H245     H      0.181890000000     0.961010000000     0.465270000000     0.060327   
H246     H      0.322580000000     0.964620000000     0.464910000000     0.0525591  
H247     H      0.322520000000     0.037810000000     0.532680000000     0.0521078  
H248     H      0.224130000000     0.948530000000     0.499610000000     0.0358494  
H249     H      0.378570000000     0.038530000000     0.531350000000     0.0272573  
H250     H      0.108620000000     0.961800000000     0.439360000000     0.090877   
H251     H      0.139530000000     0.935700000000     0.447280000000     0.070392   
H252     H      0.106680000000     0.934930000000     0.471980000000     0.0869828  
H253     H      0.031100000000     0.613060000000     0.036950000000     0.02946    
H254     H      0.032210000000     0.870320000000     0.966740000000     0.0252263  
H255     H      0.000500000000     0.713450000000     0.051840000000     0.0384346  
H256     H      0.999960000000     0.771060000000     0.952610000000     0.0357435  
H257     H      0.033710000000     0.814850000000     0.966530000000     0.0543397  
H258     H      0.000080000000     0.714650000000     0.951940000000     0.0385943  
H259     H      0.966370000000     0.812250000000     0.039240000000     0.0605037  
H260     H      0.033050000000     0.669100000000     0.037910000000     0.0527018  
H261     H      0.965160000000     0.672010000000     0.964910000000     0.0521028  
H262     H      0.001330000000     0.769870000000     0.052490000000     0.0362309  
H263     H      0.964000000000     0.616060000000     0.964200000000     0.0279221  
H264     H      0.940480000000     0.886160000000     0.035140000000     0.0876046  
H265     H      0.946620000000     0.855360000000     0.061790000000     0.0708169  
H266     H      0.972070000000     0.887650000000     0.063250000000     0.0908157  
H267     H      0.031800000000     0.116080000000     0.030410000000     0.0296327  
H268     H      0.961840000000     0.370690000000     0.029710000000     0.0267691  
H269     H      0.995620000000     0.214860000000     0.044430000000     0.038338   
H270     H      0.989960000000     0.269700000000     0.943820000000     0.0360205  
H271     H      0.960610000000     0.315120000000     0.030550000000     0.0545334  
H272     H      0.991250000000     0.213340000000     0.944630000000     0.0381108  
H273     H      0.025260000000     0.312130000000     0.955440000000     0.0602467  
H274     H      0.030140000000     0.172090000000     0.030170000000     0.0527021  
H275     H      0.959480000000     0.169050000000     0.959860000000     0.0526455  
H276     H      0.995250000000     0.271330000000     0.043560000000     0.0364741  
H277     H      0.961920000000     0.113080000000     0.960330000000     0.0295245  
H278     H      0.051040000000     0.385160000000     0.956520000000     0.0880962  
H279     H      0.041580000000     0.355100000000     0.929920000000     0.0709015  
H280     H      0.017200000000     0.388160000000     0.931320000000     0.0908556  
H281     H      0.621080000000     0.965860000000     0.034450000000     0.0296197  
H282     H      0.878330000000     0.028040000000     0.965170000000     0.0293959  
H283     H      0.721220000000     0.995890000000     0.049090000000     0.0381541  
H284     H      0.777410000000     0.000790000000     0.949180000000     0.0372502  
H285     H      0.822880000000     0.031150000000     0.964990000000     0.0553829  
H286     H      0.721040000000     0.002770000000     0.949400000000     0.0386544  
H287     H      0.818110000000     0.958220000000     0.031990000000     0.0604277  
H288     H      0.677040000000     0.964730000000     0.034560000000     0.0526583  
H289     H      0.677960000000     0.035490000000     0.964230000000     0.0529803  
H290     H      0.777550000000     0.993760000000     0.048820000000     0.0365521  
H291     H      0.621950000000     0.035630000000     0.964200000000     0.0298681  
H292     H      0.891450000000     0.957440000000     0.056950000000     0.0908589  
H293     H      0.860430000000     0.931620000000     0.048410000000     0.0709546  
H294     H      0.893260000000     0.931410000000     0.023670000000     0.0882118  
H295     H      0.378130000000     0.964350000000     0.961420000000     0.0295216  
H296     H      0.120930000000     0.028700000000     0.029000000000     0.0294773  
H297     H      0.278310000000     0.995330000000     0.945520000000     0.0380938  
H298     H      0.221200000000     0.000630000000     0.044890000000     0.0374564  
H299     H      0.176360000000     0.031360000000     0.029180000000     0.0551344  
H300     H      0.277590000000     0.002050000000     0.045200000000     0.037965   
H301     H      0.180490000000     0.959830000000     0.960640000000     0.060186   
H302     H      0.322130000000     0.963350000000     0.960950000000     0.0524586  
H303     H      0.320900000000     0.035070000000     0.030260000000     0.0521167  
H304     H      0.221970000000     0.993980000000     0.945200000000     0.036159   
H305     H      0.376920000000     0.035200000000     0.030580000000     0.0274242  
H306     H      0.104940000000     0.963410000000     0.935980000000     0.0880083  
H307     H      0.137860000000     0.938870000000     0.938310000000     0.0707011  
H308     H      0.107270000000     0.932980000000     0.965280000000     0.0908566  
H309     H      0.966200000000     0.958300000000     0.618800000000     0.0299445  
H310     H      0.966900000000     0.025750000000     0.876020000000     0.0293871  
H311     H      0.997960000000     0.942600000000     0.718140000000     0.0382307  
H312     H      0.000200000000     0.041040000000     0.777010000000     0.0376243  
H313     H      0.966050000000     0.027120000000     0.820530000000     0.0552848  
H314     H      0.999970000000     0.042450000000     0.720570000000     0.0384423  
H315     H      0.031880000000     0.953070000000     0.817210000000     0.0602303  
H316     H      0.965030000000     0.957330000000     0.674770000000     0.0528923  
H317     H      0.033670000000     0.029660000000     0.676830000000     0.0527756  
H318     H      0.997190000000     0.941230000000     0.774490000000     0.0361944  
H319     H      0.034010000000     0.030410000000     0.620770000000     0.029713   
H320     H      0.024470000000     0.927740000000     0.892270000000     0.0906357  
H321     H      0.050000000000     0.928700000000     0.860030000000     0.0707524  
H322     H      0.057020000000     0.954740000000     0.891180000000     0.0877303  
H323     H      0.037400000000     0.030970000000     0.118530000000     0.0293167  
H324     H      0.032230000000     0.962680000000     0.376130000000     0.0257445  
H325     H      0.006020000000     0.047770000000     0.218390000000     0.0383238  
H326     H      0.000500000000     0.949070000000     0.276620000000     0.0365122  
H327     H      0.034340000000     0.962040000000     0.320680000000     0.0543597  
H328     H      0.001540000000     0.947990000000     0.220220000000     0.0379157  
H329     H      0.969810000000     0.037210000000     0.316850000000     0.0608464  
H330     H      0.038800000000     0.032080000000     0.174610000000     0.0527761  
H331     H      0.967680000000     0.962190000000     0.177070000000     0.0516374  
H332     H      0.005900000000     0.048790000000     0.274820000000     0.0363592  
H333     H      0.967070000000     0.961310000000     0.121120000000     0.0257703  
H334     H      0.976480000000     0.061260000000     0.392760000000     0.0923164  
H335     H      0.952030000000     0.062010000000     0.359690000000     0.0726585  
H336     H      0.943030000000     0.035520000000     0.389980000000     0.0927405  
N1       N      0.494890000000     0.502740000000     0.881070000000    -0.198498   
N2       N      0.498790000000     0.500840000000     0.616830000000    -0.184707   
N3       N      0.493900000000     0.500610000000     0.117380000000    -0.198558   
N4       N      0.494690000000     0.503830000000     0.381410000000    -0.184756   
N5       N      0.492530000000     0.619630000000     0.499700000000    -0.198326   
N6       N      0.499780000000     0.883790000000     0.500640000000    -0.184367   
N7       N      0.502310000000     0.119550000000     0.494660000000    -0.19889    
N8       N      0.497620000000     0.383770000000     0.497850000000    -0.184872   
N9       N      0.495990000000     0.618650000000     0.998340000000    -0.198953   
N10      N      0.499750000000     0.882830000000     0.000150000000    -0.183405   
N11      N      0.493370000000     0.382480000000     0.999190000000    -0.198751   
N12      N      0.498690000000     0.118310000000     0.995910000000    -0.184949   
N13      N      0.499010000000     0.003870000000     0.615780000000    -0.198371   
N14      N      0.501380000000     0.998850000000     0.879920000000    -0.18451    
N15      N      0.496980000000     0.002320000000     0.115850000000    -0.198555   
N16      N      0.500560000000     0.998530000000     0.379990000000    -0.185268   
N17      N      0.877560000000     0.496120000000     0.497260000000    -0.198721   
N18      N      0.613490000000     0.503430000000     0.496390000000    -0.184446   
N19      N      0.377650000000     0.497500000000     0.501330000000    -0.198725   
N20      N      0.113410000000     0.497060000000     0.496830000000    -0.184284   
N21      N      0.876890000000     0.495120000000     0.993800000000    -0.198836   
N22      N      0.612550000000     0.498080000000     0.999340000000    -0.184454   
N23      N      0.113140000000     0.491130000000     0.998410000000    -0.198867   
N24      N      0.377040000000     0.501120000000     0.999970000000    -0.186249   
N25      N      0.994870000000     0.495630000000     0.615020000000    -0.198842   
N26      N      0.997740000000     0.496620000000     0.879110000000    -0.185882   
N27      N      0.992250000000     0.488060000000     0.114840000000    -0.198394   
N28      N      0.995150000000     0.494550000000     0.379160000000    -0.184269   
N29      N      0.002010000000     0.878280000000     0.494480000000    -0.198376   
N30      N      0.995790000000     0.614120000000     0.496700000000    -0.18458    
N31      N      0.995410000000     0.378250000000     0.499190000000    -0.198851   
N32      N      0.000990000000     0.114080000000     0.498860000000    -0.184755   
N33      N      0.618670000000     0.002210000000     0.498190000000    -0.198457   
N34      N      0.882800000000     0.995730000000     0.499130000000    -0.184864   
N35      N      0.118610000000     0.995090000000     0.497460000000    -0.198674   
N36      N      0.382780000000     0.002040000000     0.497900000000    -0.184803   
N37      N      0.998550000000     0.874540000000     0.003280000000    -0.199219   
N38      N      0.997480000000     0.610330000000     0.000480000000    -0.183855   
N39      N      0.994110000000     0.374610000000     0.991930000000    -0.199158   
N40      N      0.997020000000     0.110340000000     0.995400000000    -0.184591   
N41      N      0.881390000000     0.991550000000     0.998990000000    -0.198957   
N42      N      0.617290000000     0.000750000000     0.999280000000    -0.184581   
N43      N      0.117500000000     0.992950000000     0.994420000000    -0.198684   
N44      N      0.381750000000     0.999810000000     0.996030000000    -0.185403   
N45      N      0.999730000000     0.988420000000     0.879860000000    -0.19862    
N46      N      0.000190000000     0.994400000000     0.615550000000    -0.184108   
N47      N      0.999950000000     0.000520000000     0.379720000000    -0.199087   
N48      N      0.002160000000     0.996080000000     0.115600000000    -0.185101   
O1       O      0.999470000000     0.992770000000     0.997960000000    -0.368251   
O2       O      0.982720000000     0.977440000000     0.069990000000    -0.309118   
O3       O      0.071330000000     0.012000000000     0.013050000000    -0.302657   
O4       O      0.016810000000     0.920240000000     0.982850000000    -0.309362   
O5       O      0.019640000000     0.012820000000     0.068350000000    -0.303191   
O6       O      0.981410000000     0.922520000000     0.019260000000    -0.314883   
O7       O      0.069970000000     0.973600000000     0.979680000000    -0.313222   
O8       O      0.981450000000     0.008340000000     0.925810000000    -0.303585   
O9       O      0.016820000000     0.064670000000     0.013770000000    -0.301691   
O10      O      0.016540000000     0.971550000000     0.927650000000    -0.313409   
O11      O      0.980170000000     0.063120000000     0.978050000000    -0.303009   
O12      O      0.927730000000     0.008950000000     0.979240000000    -0.303545   
O13      O      0.928760000000     0.975550000000     0.017630000000    -0.3128     
O14      O      0.000520000000     0.996410000000     0.497940000000    -0.366981   
O15      O      0.981690000000     0.016270000000     0.427380000000    -0.311943   
O16      O      0.071260000000     0.978910000000     0.478920000000    -0.313842   
O17      O      0.019500000000     0.067570000000     0.516570000000    -0.302981   
O18      O      0.018180000000     0.980890000000     0.425730000000    -0.308016   
O19      O      0.982200000000     0.067690000000     0.481530000000    -0.307485   
O20      O      0.072240000000     0.013380000000     0.516340000000    -0.303485   
O21      O      0.983050000000     0.976540000000     0.568660000000    -0.303763   
O22      O      0.018610000000     0.926040000000     0.477360000000    -0.313872   
O23      O      0.018420000000     0.013550000000     0.569520000000    -0.302359   
O24      O      0.983530000000     0.924190000000     0.514170000000    -0.304955   
O25      O      0.929480000000     0.976910000000     0.515900000000    -0.303608   
O26      O      0.929010000000     0.014490000000     0.481170000000    -0.305815   
O27      O      0.994960000000     0.492720000000     0.996860000000    -0.367662   
O28      O      0.975050000000     0.472080000000     0.066800000000    -0.310568   
O29      O      0.066440000000     0.508760000000     0.017110000000    -0.303298   
O30      O      0.012570000000     0.422270000000     0.976630000000    -0.313972   
O31      O      0.011560000000     0.507490000000     0.069170000000    -0.303705   
O32      O      0.975520000000     0.420620000000     0.011470000000    -0.305117   
O33      O      0.066080000000     0.474640000000     0.979400000000    -0.313665   
O34      O      0.978840000000     0.513700000000     0.925650000000    -0.306906   
O35      O      0.014000000000     0.563020000000     0.017970000000    -0.301965   
O36      O      0.014300000000     0.476870000000     0.925410000000    -0.309169   
O37      O      0.978910000000     0.564780000000     0.980750000000    -0.305554   
O38      O      0.924740000000     0.512630000000     0.977880000000    -0.311667   
O39      O      0.922730000000     0.475180000000     0.012310000000    -0.304389   
O40      O      0.995800000000     0.496510000000     0.496750000000    -0.3675     
O41      O      0.977520000000     0.425810000000     0.515330000000    -0.316845   
O42      O      0.013360000000     0.477090000000     0.425830000000    -0.302387   
O43      O      0.924040000000     0.514550000000     0.478730000000    -0.304157   
O44      O      0.014120000000     0.424400000000     0.480090000000    -0.303712   
O45      O      0.924810000000     0.478610000000     0.514690000000    -0.316306   
O46      O      0.977600000000     0.513750000000     0.425410000000    -0.302677   
O47      O      0.013420000000     0.567630000000     0.515100000000    -0.303145   
O48      O      0.067080000000     0.478370000000     0.478940000000    -0.302823   
O49      O      0.977700000000     0.567720000000     0.478410000000    -0.302869   
O50      O      0.066820000000     0.514700000000     0.515040000000    -0.303181   
O51      O      0.013540000000     0.514380000000     0.568710000000    -0.303809   
O52      O      0.977390000000     0.478670000000     0.567590000000    -0.316175   
O53      O      0.499560000000     0.000540000000     0.997650000000    -0.367108   
O54      O      0.428550000000     0.981740000000     0.978770000000    -0.303918   
O55      O      0.480020000000     0.019460000000     0.068190000000    -0.311848   
O56      O      0.517460000000     0.929670000000     0.017650000000    -0.302142   
O57      O      0.427870000000     0.018530000000     0.014310000000    -0.305513   
O58      O      0.482160000000     0.928890000000     0.980590000000    -0.303152   
O59      O      0.516420000000     0.983970000000     0.069780000000    -0.304503   
O60      O      0.571060000000     0.018690000000     0.980480000000    -0.303381   
O61      O      0.480840000000     0.071920000000     0.014350000000    -0.305201   
O62      O      0.570610000000     0.983040000000     0.017200000000    -0.303016   
O63      O      0.517550000000     0.071790000000     0.978700000000    -0.303139   
O64      O      0.518760000000     0.017570000000     0.926400000000    -0.303058   
O65      O      0.482680000000     0.981290000000     0.926350000000    -0.30341    
O66      O      0.500500000000     0.001370000000     0.497770000000    -0.366946   
O67      O      0.429310000000     0.020960000000     0.514960000000    -0.306013   
O68      O      0.482160000000     0.981670000000     0.426810000000    -0.303944   
O69      O      0.519070000000     0.071760000000     0.477740000000    -0.314261   
O70      O      0.429160000000     0.983290000000     0.480330000000    -0.304479   
O71      O      0.483460000000     0.073620000000     0.513990000000    -0.306721   
O72      O      0.518830000000     0.017320000000     0.426060000000    -0.308104   
O73      O      0.572110000000     0.984070000000     0.516800000000    -0.304124   
O74      O      0.482140000000     0.930010000000     0.481640000000    -0.304017   
O75      O      0.571490000000     0.018680000000     0.479510000000    -0.31413    
O76      O      0.518630000000     0.930450000000     0.517550000000    -0.302679   
O77      O      0.517960000000     0.985050000000     0.569680000000    -0.304028   
O78      O      0.482170000000     0.021210000000     0.568150000000    -0.311732   
O79      O      0.494980000000     0.500630000000     0.999240000000    -0.367594   
O80      O      0.423400000000     0.519090000000     0.981420000000    -0.30808    
O81      O      0.476470000000     0.429800000000     0.017220000000    -0.313289   
O82      O      0.512570000000     0.483110000000     0.927380000000    -0.303957   
O83      O      0.423610000000     0.483020000000     0.017640000000    -0.308673   
O84      O      0.476880000000     0.519350000000     0.928490000000    -0.314025   
O85      O      0.511630000000     0.428920000000     0.980470000000    -0.304112   
O86      O      0.566550000000     0.517300000000     0.017600000000    -0.301694   
O87      O      0.476840000000     0.482860000000     0.070060000000    -0.31447    
O88      O      0.565640000000     0.481460000000     0.981030000000    -0.303304   
O89      O      0.512840000000     0.518780000000     0.070940000000    -0.303453   
O90      O      0.514090000000     0.572050000000     0.016900000000    -0.30243    
O91      O      0.477320000000     0.571550000000     0.981700000000    -0.313808   
O92      O      0.495830000000     0.501540000000     0.499130000000    -0.366871   
O93      O      0.423400000000     0.517300000000     0.482540000000    -0.306463   
O94      O      0.479710000000     0.429790000000     0.517140000000    -0.306486   
O95      O      0.513280000000     0.485040000000     0.427370000000    -0.304227   
O96      O      0.425590000000     0.481520000000     0.518640000000    -0.311935   
O97      O      0.475960000000     0.520040000000     0.428330000000    -0.305614   
O98      O      0.514500000000     0.430650000000     0.479640000000    -0.303931   
O99      O      0.567280000000     0.521330000000     0.515440000000    -0.302795   
O100     O      0.480040000000     0.482670000000     0.570680000000    -0.30585    
O101     O      0.566820000000     0.484680000000     0.479720000000    -0.30423    
O102     O      0.515280000000     0.519780000000     0.570080000000    -0.303258   
O103     O      0.512460000000     0.573330000000     0.516940000000    -0.303878   
O104     O      0.475150000000     0.572170000000     0.482340000000    -0.311389   
Zn1      Zn     0.973870000000     0.967930000000     0.025400000000     0.45111    
Zn2      Zn     0.026170000000     0.019780000000     0.022560000000     0.451423   
Zn3      Zn     0.024810000000     0.965170000000     0.972920000000     0.449119   
Zn4      Zn     0.972960000000     0.017550000000     0.970920000000     0.449987   
Zn5      Zn     0.974040000000     0.022820000000     0.472800000000     0.451553   
Zn6      Zn     0.026220000000     0.971380000000     0.470670000000     0.449768   
Zn7      Zn     0.026960000000     0.022040000000     0.524350000000     0.450336   
Zn8      Zn     0.974910000000     0.969180000000     0.523370000000     0.451124   
Zn9      Zn     0.967780000000     0.465840000000     0.021110000000     0.447693   
Zn10     Zn     0.021020000000     0.517280000000     0.024530000000     0.451259   
Zn11     Zn     0.021140000000     0.467420000000     0.970400000000     0.450619   
Zn12     Zn     0.970120000000     0.520130000000     0.971030000000     0.450238   
Zn13     Zn     0.969700000000     0.470800000000     0.522670000000     0.451557   
Zn14     Zn     0.021850000000     0.469760000000     0.471160000000     0.450576   
Zn15     Zn     0.969490000000     0.522420000000     0.470570000000     0.45041    
Zn16     Zn     0.021610000000     0.522500000000     0.523280000000     0.451613   
Zn17     Zn     0.473990000000     0.973890000000     0.971570000000     0.451414   
Zn18     Zn     0.472890000000     0.026850000000     0.022830000000     0.451608   
Zn19     Zn     0.525290000000     0.975100000000     0.024810000000     0.451866   
Zn20     Zn     0.525960000000     0.026430000000     0.971600000000     0.451796   
Zn21     Zn     0.474640000000     0.028610000000     0.522870000000     0.450076   
Zn22     Zn     0.474260000000     0.974900000000     0.472310000000     0.452473   
Zn23     Zn     0.526590000000     0.026440000000     0.471000000000     0.450845   
Zn24     Zn     0.526660000000     0.975960000000     0.524660000000     0.449885   
Zn25     Zn     0.468750000000     0.526730000000     0.973580000000     0.449931   
Zn26     Zn     0.468780000000     0.474860000000     0.025170000000     0.45159    
Zn27     Zn     0.520360000000     0.474220000000     0.972670000000     0.45022    
Zn28     Zn     0.521370000000     0.526530000000     0.025490000000     0.449568   
Zn29     Zn     0.468280000000     0.526930000000     0.473850000000     0.44956    
Zn30     Zn     0.471080000000     0.474730000000     0.525680000000     0.450851   
Zn31     Zn     0.521750000000     0.476130000000     0.472270000000     0.452996   
Zn32     Zn     0.521980000000     0.528270000000     0.524640000000     0.450922   


