data_structure

_audit_creation_method RASPA-1.0
_audit_creation_date 2023-5-19
_audit_author_name 'Poobodin Mano'

_cell_length_a    43.2492
_cell_length_b    43.2457
_cell_length_c    43.2442
_cell_angle_alpha 90
_cell_angle_beta  90
_cell_angle_gamma 90
_cell_volume      80881.4

_symmetry_cell_setting          triclinic
_symmetry_space_group_name_Hall 'P 1'
_symmetry_space_group_name_H-M  'P 1'
_symmetry_Int_Tables_number     1

_symmetry_equiv_pos_as_xyz 'x,y,z'

loop_
_atom_site_label
_atom_site_type_symbol
_atom_site_fract_x
_atom_site_fract_y
_atom_site_fract_z
_atom_site_charge
C1       C      0.993320000000     0.996150000000     0.080730000000     0.367957   
C2       C      0.081060000000     0.000530000000     0.996060000000     0.367797   
C3       C      0.996720000000     0.912710000000     0.992180000000     0.3681     
C4       C      0.996290000000     0.000690000000     0.908570000000     0.369535   
C5       C      0.993320000000     0.084910000000     0.996760000000     0.36867    
C6       C      0.909060000000     0.997700000000     0.992680000000     0.369184   
C7       C      0.997350000000     0.997800000000     0.408860000000     0.367209   
C8       C      0.001540000000     0.911430000000     0.494620000000     0.368347   
C9       C      0.085650000000     0.000030000000     0.492440000000     0.369239   
C10      C      0.001540000000     0.996870000000     0.580730000000     0.368989   
C11      C      0.913320000000     0.995360000000     0.497180000000     0.36954    
C12      C      0.996930000000     0.083470000000     0.495660000000     0.3697     
C13      C      0.993440000000     0.412850000000     0.003510000000     0.367734   
C14      C      0.080260000000     0.497660000000     0.999920000000     0.367496   
C15      C      0.992110000000     0.496170000000     0.915060000000     0.368517   
C16      C      0.995500000000     0.584720000000     0.998370000000     0.367564   
C17      C      0.995340000000     0.501430000000     0.087330000000     0.369796   
C18      C      0.908210000000     0.499980000000     0.003550000000     0.37072    
C19      C      0.001970000000     0.411280000000     0.499970000000     0.36925    
C20      C      0.914690000000     0.495720000000     0.498710000000     0.370235   
C21      C      0.998850000000     0.496490000000     0.587010000000     0.367247   
C22      C      0.999180000000     0.583480000000     0.502150000000     0.368349   
C23      C      0.002460000000     0.498550000000     0.415060000000     0.369124   
C24      C      0.086750000000     0.498350000000     0.502610000000     0.368085   
C25      C      0.409080000000     0.001870000000     0.997510000000     0.369649   
C26      C      0.495380000000     0.999660000000     0.081740000000     0.369716   
C27      C      0.492530000000     0.912450000000     0.996760000000     0.369106   
C28      C      0.581040000000     0.996270000000     0.995160000000     0.36714    
C29      C      0.498240000000     0.084570000000     0.993460000000     0.368756   
C30      C      0.493720000000     0.995940000000     0.909580000000     0.369384   
C31      C      0.413580000000     0.997730000000     0.495380000000     0.367663   
C32      C      0.499870000000     0.994390000000     0.409530000000     0.368701   
C33      C      0.502820000000     0.080980000000     0.494550000000     0.369532   
C34      C      0.585540000000     0.991660000000     0.495890000000     0.367962   
C35      C      0.496290000000     0.908840000000     0.495860000000     0.369466   
C36      C      0.499200000000     0.995640000000     0.581570000000     0.367516   
C37      C      0.408200000000     0.498670000000     0.996890000000     0.369591   
C38      C      0.494410000000     0.412560000000     0.997640000000     0.367645   
C39      C      0.495760000000     0.500520000000     0.913310000000     0.370027   
C40      C      0.580240000000     0.498420000000     0.001040000000     0.368669   
C41      C      0.491880000000     0.496480000000     0.085580000000     0.368961   
C42      C      0.494540000000     0.584470000000     0.001420000000     0.369112   
C43      C      0.414640000000     0.493240000000     0.501860000000     0.369475   
C44      C      0.502070000000     0.408970000000     0.498850000000     0.368339   
C45      C      0.498980000000     0.495370000000     0.413570000000     0.368058   
C46      C      0.586740000000     0.496180000000     0.498570000000     0.368629   
C47      C      0.502230000000     0.494940000000     0.585590000000     0.368734   
C48      C      0.499330000000     0.580920000000     0.499450000000     0.36852    
C49      C      0.479430000000     0.520200000000     0.831340000000    -0.104112   
C50      C      0.484250000000     0.474920000000     0.633700000000     0.0709589  
C51      C      0.520990000000     0.515610000000     0.633110000000     0.0708956  
C52      C      0.484020000000     0.475030000000     0.665990000000    -0.0903701  
C53      C      0.501820000000     0.469300000000     0.733810000000    -0.0355283  
C54      C      0.501040000000     0.470140000000     0.766110000000    -0.0337879  
C55      C      0.502140000000     0.496860000000     0.716570000000    -0.00529091 
C56      C      0.521230000000     0.516410000000     0.665400000000    -0.0903623  
C57      C      0.500410000000     0.498550000000     0.781880000000    -0.00835909 
C58      C      0.517100000000     0.479630000000     0.834010000000    -0.0940037  
C59      C      0.500870000000     0.526110000000     0.764640000000    -0.0337898  
C60      C      0.515450000000     0.480780000000     0.866180000000     0.070676   
C61      C      0.478000000000     0.520980000000     0.863720000000     0.102798   
C62      C      0.501770000000     0.525270000000     0.732360000000    -0.0354263  
C63      C      0.502550000000     0.496020000000     0.682240000000     0.0490298  
C64      C      0.499010000000     0.499470000000     0.816190000000     0.0552299  
C65      C      0.471600000000     0.477680000000     0.166900000000    -0.103905   
C66      C      0.518130000000     0.477180000000     0.365170000000     0.0706437  
C67      C      0.477710000000     0.514190000000     0.366320000000     0.0707136  
C68      C      0.517680000000     0.477090000000     0.332870000000    -0.0902323  
C69      C      0.523310000000     0.495510000000     0.265220000000    -0.0354726  
C70      C      0.522410000000     0.495570000000     0.232910000000    -0.0338547  
C71      C      0.495800000000     0.496000000000     0.282530000000    -0.00526378 
C72      C      0.476610000000     0.514610000000     0.334050000000    -0.0903076  
C73      C      0.493970000000     0.496010000000     0.217160000000    -0.00822804 
C74      C      0.513370000000     0.514080000000     0.165640000000    -0.0937687  
C75      C      0.466460000000     0.496500000000     0.234470000000    -0.0339023  
C76      C      0.512140000000     0.513750000000     0.133430000000     0.0705637  
C77      C      0.470710000000     0.477630000000     0.134480000000     0.102555   
C78      C      0.467370000000     0.496530000000     0.266780000000    -0.0354569  
C79      C      0.496730000000     0.495920000000     0.316890000000     0.0488119  
C80      C      0.493000000000     0.495910000000     0.182800000000     0.0549402  
C81      C      0.475390000000     0.827440000000     0.478340000000    -0.103866   
C82      C      0.518790000000     0.629090000000     0.517870000000     0.0708705  
C83      C      0.478760000000     0.628380000000     0.480430000000     0.0709094  
C84      C      0.518780000000     0.661380000000     0.517890000000    -0.0902616  
C85      C      0.500980000000     0.728870000000     0.525940000000    -0.0354077  
C86      C      0.500560000000     0.761180000000     0.525550000000    -0.0338569  
C87      C      0.498060000000     0.711950000000     0.498320000000    -0.00521276 
C88      C      0.478150000000     0.660660000000     0.479870000000    -0.0902422  
C89      C      0.497190000000     0.777320000000     0.497540000000    -0.00817528 
C90      C      0.516590000000     0.828920000000     0.515390000000    -0.0936867  
C91      C      0.494400000000     0.760410000000     0.469920000000    -0.0337708  
C92      C      0.515690000000     0.861140000000     0.514470000000     0.0706435  
C93      C      0.474750000000     0.859850000000     0.477790000000     0.102555   
C94      C      0.494830000000     0.728110000000     0.470300000000    -0.0353912  
C95      C      0.498330000000     0.677590000000     0.498720000000     0.0489579  
C96      C      0.496420000000     0.811660000000     0.497090000000     0.0550485  
C97      C      0.523480000000     0.162210000000     0.475810000000    -0.103899   
C98      C      0.483330000000     0.360780000000     0.517930000000     0.0704976  
C99      C      0.521550000000     0.361530000000     0.478640000000     0.0706934  
C100     C      0.483210000000     0.328490000000     0.517800000000    -0.0903641  
C101     C      0.500960000000     0.260920000000     0.524750000000    -0.0354767  
C102     C      0.501090000000     0.228600000000     0.524230000000    -0.0339424  
C103     C      0.502790000000     0.277920000000     0.497090000000    -0.00526164 
C104     C      0.522010000000     0.329240000000     0.477920000000    -0.0901823  
C105     C      0.503100000000     0.212540000000     0.496040000000    -0.00817535 
C106     C      0.483800000000     0.161120000000     0.514490000000    -0.0937525  
C107     C      0.504870000000     0.229530000000     0.468380000000    -0.0339071  
C108     C      0.484320000000     0.128900000000     0.513520000000     0.0705863  
C109     C      0.523730000000     0.129790000000     0.475190000000     0.102535   
C110     C      0.504710000000     0.261840000000     0.468900000000    -0.0354258  
C111     C      0.502680000000     0.312290000000     0.497620000000     0.0487845  
C112     C      0.503450000000     0.178180000000     0.495460000000     0.0550419  
C113     C      0.473500000000     0.830700000000     0.978700000000    -0.103704   
C114     C      0.513530000000     0.632240000000     0.021480000000     0.0708149  
C115     C      0.475590000000     0.632350000000     0.981910000000     0.0706935  
C116     C      0.514000000000     0.664570000000     0.021660000000    -0.0900905  
C117     C      0.496720000000     0.732600000000     0.028500000000    -0.0357071  
C118     C      0.496340000000     0.764930000000     0.027890000000    -0.0331989  
C119     C      0.495280000000     0.715530000000     0.000860000000    -0.00467775 
C120     C      0.475510000000     0.664610000000     0.981470000000    -0.0907482  
C121     C      0.494500000000     0.780910000000     0.999630000000    -0.00865193 
C122     C      0.512400000000     0.832870000000     0.018120000000    -0.0932348  
C123     C      0.493430000000     0.763830000000     0.972000000000    -0.0335594  
C124     C      0.511360000000     0.865070000000     0.016760000000     0.0709509  
C125     C      0.472770000000     0.863090000000     0.977650000000     0.10258    
C126     C      0.493820000000     0.731550000000     0.972610000000    -0.0360209  
C127     C      0.494940000000     0.681160000000     0.001400000000     0.0491927  
C128     C      0.493450000000     0.815260000000     0.998880000000     0.0547053  
C129     C      0.518200000000     0.165910000000     0.974370000000    -0.103844   
C130     C      0.475150000000     0.364210000000     0.015830000000     0.0707841  
C131     C      0.514590000000     0.365290000000     0.977770000000     0.07057    
C132     C      0.475240000000     0.331900000000     0.015590000000    -0.0899734  
C133     C      0.493780000000     0.264510000000     0.023030000000    -0.0351929  
C134     C      0.494410000000     0.232200000000     0.022520000000    -0.0336342  
C135     C      0.495920000000     0.281530000000     0.995420000000    -0.00560607 
C136     C      0.515240000000     0.333020000000     0.976920000000    -0.0901896  
C137     C      0.497180000000     0.216150000000     0.994370000000    -0.00859378 
C138     C      0.478300000000     0.164590000000     0.012820000000    -0.0937014  
C139     C      0.499260000000     0.233180000000     0.966750000000    -0.033923   
C140     C      0.479200000000     0.132390000000     0.012060000000     0.070456   
C141     C      0.518810000000     0.133480000000     0.973940000000     0.102202   
C142     C      0.498640000000     0.265480000000     0.967270000000    -0.0354739  
C143     C      0.495440000000     0.315890000000     0.995970000000     0.0484152  
C144     C      0.497880000000     0.181780000000     0.993830000000     0.054482   
C145     C      0.475960000000     0.974710000000     0.828290000000    -0.103706   
C146     C      0.480570000000     0.016400000000     0.629130000000     0.0706347  
C147     C      0.517060000000     0.975500000000     0.629690000000     0.0705887  
C148     C      0.479920000000     0.016810000000     0.661420000000    -0.0900683  
C149     C      0.497020000000     0.023840000000     0.729300000000    -0.0352948  
C150     C      0.496280000000     0.023700000000     0.761610000000    -0.0337403  
C151     C      0.497490000000     0.995920000000     0.712640000000    -0.00550275 
C152     C      0.516900000000     0.975240000000     0.661990000000    -0.0903102  
C153     C      0.495870000000     0.995640000000     0.778020000000    -0.00836529 
C154     C      0.513090000000     0.015850000000     0.829520000000    -0.093439   
C155     C      0.496370000000     0.967720000000     0.761360000000    -0.0338613  
C156     C      0.512120000000     0.015200000000     0.861740000000     0.0708134  
C157     C      0.475290000000     0.974380000000     0.860720000000     0.102389   
C158     C      0.497210000000     0.967860000000     0.729060000000    -0.03544    
C159     C      0.498150000000     0.996030000000     0.678280000000     0.0485663  
C160     C      0.494920000000     0.995460000000     0.812380000000     0.0547391  
C161     C      0.476000000000     0.017120000000     0.163520000000    -0.103736   
C162     C      0.520180000000     0.012660000000     0.361660000000     0.0711089  
C163     C      0.479510000000     0.975900000000     0.361770000000     0.0709527  
C164     C      0.520320000000     0.013030000000     0.329370000000    -0.0899942  
C165     C      0.526590000000     0.995550000000     0.261480000000    -0.0354433  
C166     C      0.525980000000     0.996310000000     0.229170000000    -0.0339008  
C167     C      0.498910000000     0.995060000000     0.278530000000    -0.00524065 
C168     C      0.478980000000     0.975780000000     0.329490000000    -0.0902035  
C169     C      0.497670000000     0.996730000000     0.213210000000    -0.00819304 
C170     C      0.516940000000     0.979820000000     0.161250000000    -0.0937406  
C171     C      0.470010000000     0.996140000000     0.230260000000    -0.0338639  
C172     C      0.515660000000     0.980990000000     0.129050000000     0.0705674  
C173     C      0.475030000000     0.018000000000     0.131130000000     0.102654   
C174     C      0.470620000000     0.995280000000     0.262540000000    -0.035408   
C175     C      0.499490000000     0.994540000000     0.312870000000     0.0487556  
C176     C      0.496940000000     0.997940000000     0.178880000000     0.054865   
C177     C      0.833540000000     0.476640000000     0.478180000000    -0.104033   
C178     C      0.634460000000     0.515670000000     0.518100000000     0.0708671  
C179     C      0.634660000000     0.477320000000     0.478920000000     0.0707941  
C180     C      0.666740000000     0.516010000000     0.518530000000    -0.0901576  
C181     C      0.734460000000     0.524160000000     0.501580000000    -0.0355107  
C182     C      0.766780000000     0.523980000000     0.501620000000    -0.033756   
C183     C      0.717780000000     0.496360000000     0.499050000000    -0.00512492 
C184     C      0.666940000000     0.477070000000     0.478770000000    -0.0901926  
C185     C      0.783150000000     0.496000000000     0.499120000000    -0.00827792 
C186     C      0.834490000000     0.514650000000     0.518510000000    -0.0937309  
C187     C      0.766450000000     0.468210000000     0.496800000000    -0.0337589  
C188     C      0.866720000000     0.514000000000     0.517790000000     0.0706914  
C189     C      0.865950000000     0.476330000000     0.477740000000     0.102648   
C190     C      0.734160000000     0.468380000000     0.496760000000    -0.0354832  
C191     C      0.683410000000     0.496510000000     0.498760000000     0.048873   
C192     C      0.817500000000     0.495780000000     0.498640000000     0.0551655  
C193     C      0.333310000000     0.474130000000     0.521680000000    -0.103923   
C194     C      0.134710000000     0.518220000000     0.484090000000     0.0707024  
C195     C      0.134410000000     0.478720000000     0.522100000000     0.0707756  
C196     C      0.167010000000     0.518380000000     0.483920000000    -0.090207   
C197     C      0.234300000000     0.500210000000     0.475270000000    -0.0354598  
C198     C      0.266610000000     0.499460000000     0.475180000000    -0.0338657  
C199     C      0.217780000000     0.497860000000     0.503180000000    -0.00522048 
C200     C      0.166690000000     0.478300000000     0.522520000000    -0.0902223  
C201     C      0.283140000000     0.496300000000     0.502990000000    -0.00821574 
C202     C      0.334670000000     0.514740000000     0.483970000000    -0.0937938  
C203     C      0.266620000000     0.494120000000     0.530910000000    -0.0338252  
C204     C      0.366860000000     0.513330000000     0.484220000000     0.0705923  
C205     C      0.365710000000     0.472990000000     0.521580000000     0.102543   
C206     C      0.234330000000     0.494890000000     0.531000000000    -0.0354647  
C207     C      0.183420000000     0.498230000000     0.503240000000     0.048847   
C208     C      0.317480000000     0.495090000000     0.502890000000     0.055061   
C209     C      0.826970000000     0.518560000000     0.024170000000    -0.103941   
C210     C      0.628290000000     0.479720000000     0.981580000000     0.0706212  
C211     C      0.627820000000     0.516990000000     0.021780000000     0.0708646  
C212     C      0.660580000000     0.479440000000     0.981640000000    -0.0906171  
C213     C      0.728130000000     0.497490000000     0.974810000000    -0.0357456  
C214     C      0.760440000000     0.497680000000     0.975170000000    -0.0341107  
C215     C      0.711270000000     0.498360000000     0.002600000000    -0.00489328 
C216     C      0.660100000000     0.517240000000     0.022470000000    -0.0902053  
C217     C      0.776650000000     0.498760000000     0.003320000000    -0.00784555 
C218     C      0.828120000000     0.480610000000     0.983780000000    -0.0939981  
C219     C      0.759790000000     0.499490000000     0.031110000000    -0.0338123  
C220     C      0.860340000000     0.481400000000     0.984530000000     0.0705418  
C221     C      0.859380000000     0.519010000000     0.024630000000     0.102841   
C222     C      0.727490000000     0.499310000000     0.030760000000    -0.0354567  
C223     C      0.676910000000     0.498340000000     0.002230000000     0.0492577  
C224     C      0.811020000000     0.499320000000     0.003720000000     0.05545    
C225     C      0.326830000000     0.516340000000     0.976060000000    -0.10412    
C226     C      0.128150000000     0.478710000000     0.019590000000     0.070823   
C227     C      0.128000000000     0.515560000000     0.979000000000     0.0706302  
C228     C      0.160440000000     0.478130000000     0.019510000000    -0.0898946  
C229     C      0.228200000000     0.495780000000     0.026000000000    -0.0351426  
C230     C      0.260520000000     0.495920000000     0.025560000000    -0.0334942  
C231     C      0.211280000000     0.496350000000     0.998240000000    -0.00557177 
C232     C      0.160280000000     0.515490000000     0.978260000000    -0.0903032  
C233     C      0.276660000000     0.496630000000     0.997350000000    -0.00852618 
C234     C      0.328270000000     0.479020000000     0.017020000000    -0.0932692  
C235     C      0.259730000000     0.496960000000     0.969590000000    -0.0338648  
C236     C      0.360490000000     0.479990000000     0.016200000000     0.0709129  
C237     C      0.359230000000     0.516970000000     0.975520000000     0.103131   
C238     C      0.227430000000     0.496840000000     0.970030000000    -0.0355014  
C239     C      0.176920000000     0.496640000000     0.998670000000     0.0484894  
C240     C      0.311020000000     0.497330000000     0.996840000000     0.0547109  
C241     C      0.971660000000     0.477370000000     0.833760000000    -0.10377    
C242     C      0.017730000000     0.477490000000     0.635220000000     0.0708777  
C243     C      0.977840000000     0.515070000000     0.634470000000     0.070453   
C244     C      0.017320000000     0.477090000000     0.667520000000    -0.0898122  
C245     C      0.023330000000     0.494910000000     0.735320000000    -0.0351628  
C246     C      0.022500000000     0.494810000000     0.767630000000    -0.0334567  
C247     C      0.995780000000     0.495850000000     0.718070000000    -0.00561679 
C248     C      0.976760000000     0.515180000000     0.666750000000    -0.090322   
C249     C      0.994110000000     0.495530000000     0.783460000000    -0.00858391 
C250     C      0.013830000000     0.513320000000     0.834950000000    -0.0932544  
C251     C      0.966570000000     0.496420000000     0.766210000000    -0.0338267  
C252     C      0.012620000000     0.513030000000     0.867160000000     0.0707046  
C253     C      0.970810000000     0.477340000000     0.866190000000     0.102393   
C254     C      0.967400000000     0.496620000000     0.733900000000    -0.0354323  
C255     C      0.996640000000     0.496040000000     0.683710000000     0.0483599  
C256     C      0.993220000000     0.495390000000     0.817820000000     0.0544699  
C257     C      0.976550000000     0.520270000000     0.168920000000    -0.103969   
C258     C      0.021910000000     0.518520000000     0.367440000000     0.0708377  
C259     C      0.983340000000     0.479570000000     0.367040000000     0.0705582  
C260     C      0.022020000000     0.519290000000     0.335130000000    -0.090342   
C261     C      0.028910000000     0.502580000000     0.266850000000    -0.0357829  
C262     C      0.028030000000     0.503050000000     0.234530000000    -0.0331134  
C263     C      0.001400000000     0.500770000000     0.284080000000    -0.00473816 
C264     C      0.982790000000     0.479830000000     0.334790000000    -0.0910976  
C265     C      0.999620000000     0.501910000000     0.218760000000    -0.00885792 
C266     C      0.019050000000     0.484720000000     0.166950000000    -0.0933561  
C267     C      0.972140000000     0.500210000000     0.236020000000    -0.0334613  
C268     C      0.017180000000     0.484930000000     0.134760000000     0.0710164  
C269     C      0.975020000000     0.520200000000     0.136550000000     0.102697   
C270     C      0.973020000000     0.499620000000     0.268290000000    -0.0360833  
C271     C      0.002180000000     0.499910000000     0.318410000000     0.0493076  
C272     C      0.998540000000     0.502420000000     0.184440000000     0.0548078  
C273     C      0.979070000000     0.665180000000     0.519480000000    -0.104429   
C274     C      0.022320000000     0.863920000000     0.513400000000     0.0709469  
C275     C      0.981740000000     0.863260000000     0.476550000000     0.0705697  
C276     C      0.022650000000     0.831630000000     0.514220000000    -0.0901868  
C277     C      0.029280000000     0.763480000000     0.497770000000    -0.0354854  
C278     C      0.028830000000     0.731170000000     0.498820000000    -0.0337472  
C279     C      0.001530000000     0.780380000000     0.496950000000    -0.00480877 
C280     C      0.981400000000     0.830970000000     0.476890000000    -0.0906048  
C281     C      0.000610000000     0.715030000000     0.499190000000    -0.00795102 
C282     C      0.020400000000     0.663170000000     0.482610000000    -0.0939849  
C283     C      0.972860000000     0.731950000000     0.498360000000    -0.0340739  
C284     C      0.019370000000     0.630970000000     0.483830000000     0.0710145  
C285     C      0.978420000000     0.632760000000     0.520480000000     0.102534   
C286     C      0.973310000000     0.764230000000     0.497210000000    -0.0358111  
C287     C      0.001930000000     0.814730000000     0.495940000000     0.0492838  
C288     C      0.000060000000     0.680690000000     0.500460000000     0.055572   
C289     C      0.975960000000     0.164610000000     0.513980000000    -0.104432   
C290     C      0.021020000000     0.363050000000     0.518810000000     0.0708899  
C291     C      0.983030000000     0.363890000000     0.479290000000     0.0708187  
C292     C      0.021120000000     0.330730000000     0.518560000000    -0.0901392  
C293     C      0.028400000000     0.263060000000     0.499970000000    -0.0358371  
C294     C      0.027620000000     0.230730000000     0.499510000000    -0.0330921  
C295     C      0.000890000000     0.280280000000     0.498060000000    -0.00462344 
C296     C      0.982500000000     0.331640000000     0.478520000000    -0.0907119  
C297     C      0.999300000000     0.214930000000     0.497290000000    -0.00895234 
C298     C      0.019480000000     0.163550000000     0.479640000000    -0.0936862  
C299     C      0.971810000000     0.232160000000     0.495410000000    -0.0334094  
C300     C      0.018030000000     0.131330000000     0.479480000000     0.0709991  
C301     C      0.974840000000     0.132220000000     0.513510000000     0.103473   
C302     C      0.972600000000     0.264440000000     0.495780000000    -0.036137   
C303     C      0.001600000000     0.314620000000     0.498350000000     0.0492605  
C304     C      0.998340000000     0.180590000000     0.497040000000     0.0549149  
C305     C      0.831520000000     0.010570000000     0.518380000000    -0.103764   
C306     C      0.633870000000     0.009060000000     0.475980000000     0.0707259  
C307     C      0.632820000000     0.971350000000     0.515750000000     0.0705701  
C308     C      0.666150000000     0.008480000000     0.475690000000    -0.0902741  
C309     C      0.733380000000     0.989290000000     0.468530000000    -0.0356028  
C310     C      0.765700000000     0.989750000000     0.468900000000    -0.0338595  
C311     C      0.716540000000     0.988600000000     0.496330000000    -0.0052593  
C312     C      0.665110000000     0.970300000000     0.516160000000    -0.0902243  
C313     C      0.781890000000     0.989690000000     0.497080000000    -0.00823695 
C314     C      0.833880000000     0.973720000000     0.477040000000    -0.0937034  
C315     C      0.765050000000     0.988690000000     0.524870000000    -0.0339502  
C316     C      0.866070000000     0.975640000000     0.477730000000     0.0704373  
C317     C      0.863890000000     0.012290000000     0.518670000000     0.102921   
C318     C      0.732740000000     0.988090000000     0.524500000000    -0.0355076  
C319     C      0.682180000000     0.989010000000     0.495980000000     0.0486075  
C320     C      0.816210000000     0.991260000000     0.497520000000     0.0548071  
C321     C      0.166730000000     0.019240000000     0.471660000000    -0.10402    
C322     C      0.366040000000     0.017950000000     0.514740000000     0.0706312  
C323     C      0.365480000000     0.979520000000     0.475650000000     0.0703822  
C324     C      0.333740000000     0.018840000000     0.514880000000    -0.0898991  
C325     C      0.265700000000     0.001790000000     0.522230000000    -0.0357163  
C326     C      0.233370000000     0.002030000000     0.521810000000    -0.0337908  
C327     C      0.282570000000     0.000430000000     0.494480000000    -0.00479838 
C328     C      0.333210000000     0.979920000000     0.475120000000    -0.0903495  
C329     C      0.217200000000     0.001100000000     0.493620000000    -0.00823567 
C330     C      0.165920000000     0.983240000000     0.513790000000    -0.0940279  
C331     C      0.234090000000     0.999900000000     0.465870000000    -0.0339239  
C332     C      0.133700000000     0.983340000000     0.512720000000     0.0704193  
C333     C      0.134310000000     0.019100000000     0.470950000000     0.102525   
C334     C      0.266380000000     0.999520000000     0.466300000000    -0.0358208  
C335     C      0.316920000000     0.999730000000     0.494860000000     0.048247   
C336     C      0.182840000000     0.001270000000     0.493100000000     0.0552239  
C337     C      0.015920000000     0.831430000000     0.972190000000    -0.103271   
C338     C      0.976970000000     0.633170000000     0.016930000000     0.0706468  
C339     C      0.014800000000     0.631880000000     0.977280000000     0.0708073  
C340     C      0.976890000000     0.665450000000     0.016400000000    -0.0900442  
C341     C      0.968640000000     0.732510000000     0.997450000000    -0.0355792  
C342     C      0.968820000000     0.764810000000     0.996810000000    -0.0339636  
C343     C      0.996390000000     0.715740000000     0.995040000000    -0.00555835 
C344     C      0.015310000000     0.664160000000     0.976170000000    -0.0896599  
C345     C      0.996760000000     0.781130000000     0.993720000000    -0.00850865 
C346     C      0.978130000000     0.832620000000     0.012720000000    -0.0933516  
C347     C      0.024520000000     0.764370000000     0.991310000000    -0.0335454  
C348     C      0.978640000000     0.864840000000     0.011680000000     0.0704398  
C349     C      0.016070000000     0.863850000000     0.971420000000     0.102532   
C350     C      0.024340000000     0.732060000000     0.991960000000    -0.0351594  
C351     C      0.996200000000     0.681380000000     0.995860000000     0.0479604  
C352     C      0.996960000000     0.815500000000     0.992910000000     0.0540518  
C353     C      0.973170000000     0.166790000000     0.980600000000    -0.104243   
C354     C      0.012880000000     0.365150000000     0.023260000000     0.0710377  
C355     C      0.973560000000     0.364890000000     0.985070000000     0.0704413  
C356     C      0.013100000000     0.332840000000     0.023840000000    -0.0897268  
C357     C      0.020940000000     0.265110000000     0.006250000000    -0.035032   
C358     C      0.020860000000     0.232780000000     0.005470000000    -0.03339    
C359     C      0.993040000000     0.281760000000     0.004730000000    -0.0055975  
C360     C      0.973160000000     0.332610000000     0.985100000000    -0.090736   
C361     C      0.992900000000     0.216370000000     0.003120000000    -0.00855447 
C362     C      0.012230000000     0.164280000000     0.019840000000    -0.0932849  
C363     C      0.965000000000     0.233020000000     0.002050000000    -0.0337878  
C364     C      0.011710000000     0.132090000000     0.017700000000     0.0710824  
C365     C      0.972970000000     0.134430000000     0.978740000000     0.10225    
C366     C      0.965070000000     0.265310000000     0.002840000000    -0.0353339  
C367     C      0.993090000000     0.316140000000     0.004620000000     0.0488819  
C368     C      0.992780000000     0.182040000000     0.001230000000     0.0550464  
C369     C      0.827450000000     0.015570000000     0.973000000000    -0.103362   
C370     C      0.628700000000     0.976980000000     0.015140000000     0.0707362  
C371     C      0.629040000000     0.014580000000     0.975260000000     0.0705377  
C372     C      0.661010000000     0.976560000000     0.015600000000    -0.089676   
C373     C      0.728860000000     0.968110000000     0.998610000000    -0.0360574  
C374     C      0.761190000000     0.968310000000     0.998260000000    -0.0336877  
C375     C      0.712120000000     0.995850000000     0.995800000000    -0.00508612 
C376     C      0.661320000000     0.014770000000     0.975140000000    -0.0899507  
C377     C      0.777510000000     0.996260000000     0.995090000000    -0.0082727  
C378     C      0.829340000000     0.977840000000     0.013560000000    -0.0928425  
C379     C      0.760750000000     0.024000000000     0.992640000000    -0.0336655  
C380     C      0.861560000000     0.978700000000     0.012290000000     0.0706483  
C381     C      0.859840000000     0.016090000000     0.971990000000     0.102493   
C382     C      0.728460000000     0.023800000000     0.992980000000    -0.0354356  
C383     C      0.677740000000     0.995680000000     0.995520000000     0.0480143  
C384     C      0.811870000000     0.996540000000     0.993930000000     0.0542823  
C385     C      0.328170000000     0.022320000000     0.017710000000    -0.103479   
C386     C      0.129310000000     0.982400000000     0.976580000000     0.0705276  
C387     C      0.128450000000     0.020120000000     0.016350000000     0.0709067  
C388     C      0.161580000000     0.982590000000     0.976490000000    -0.0903719  
C389     C      0.228860000000     0.001120000000     0.969160000000    -0.0355138  
C390     C      0.261170000000     0.001290000000     0.969370000000    -0.033865   
C391     C      0.212120000000     0.002380000000     0.997010000000    -0.00553355 
C392     C      0.160750000000     0.020860000000     0.016890000000    -0.0898167  
C393     C      0.277510000000     0.002740000000     0.997430000000    -0.00861059 
C394     C      0.328670000000     0.983640000000     0.978000000000    -0.0941629  
C395     C      0.260770000000     0.004020000000     0.025280000000    -0.0334719  
C396     C      0.360890000000     0.983950000000     0.978670000000     0.0700728  
C397     C      0.360590000000     0.022310000000     0.018080000000     0.102671   
C398     C      0.228460000000     0.003850000000     0.025070000000    -0.035127   
C399     C      0.177740000000     0.001970000000     0.996790000000     0.0486079  
C400     C      0.311880000000     0.002920000000     0.997670000000     0.054728   
C401     C      0.978190000000     0.018700000000     0.826610000000    -0.103978   
C402     C      0.021650000000     0.977990000000     0.628530000000     0.0706675  
C403     C      0.981760000000     0.015590000000     0.628570000000     0.0707954  
C404     C      0.021770000000     0.977510000000     0.660860000000    -0.0901766  
C405     C      0.028340000000     0.995070000000     0.728870000000    -0.0359527  
C406     C      0.027670000000     0.995670000000     0.761200000000    -0.0332575  
C407     C      0.000710000000     0.996100000000     0.711760000000    -0.00462758 
C408     C      0.981250000000     0.015660000000     0.660820000000    -0.0906996  
C409     C      0.999360000000     0.997330000000     0.777110000000    -0.00896135 
C410     C      0.017980000000     0.980190000000     0.829260000000    -0.0935155  
C411     C      0.971750000000     0.997930000000     0.759980000000    -0.0335692  
C412     C      0.016610000000     0.981610000000     0.861440000000     0.0701172  
C413     C      0.977160000000     0.019850000000     0.858990000000     0.102298   
C414     C      0.972420000000     0.997320000000     0.727710000000    -0.0363315  
C415     C      0.001300000000     0.996400000000     0.677400000000     0.0489374  
C416     C      0.998550000000     0.998740000000     0.811430000000     0.0542974  
C417     C      0.974890000000     0.975450000000     0.162040000000    -0.103482   
C418     C      0.015170000000     0.017820000000     0.360680000000     0.071329   
C419     C      0.977760000000     0.977770000000     0.361380000000     0.070491   
C420     C      0.014940000000     0.018050000000     0.328380000000    -0.0893851  
C421     C      0.022730000000     0.000520000000     0.260780000000    -0.0347625  
C422     C      0.022270000000     0.000190000000     0.228470000000    -0.0332977  
C423     C      0.995170000000     0.997540000000     0.277770000000    -0.00566187 
C424     C      0.976940000000     0.977420000000     0.329090000000    -0.0898962  
C425     C      0.994230000000     0.996860000000     0.212360000000    -0.00854211 
C426     C      0.012140000000     0.016460000000     0.160830000000    -0.0929122  
C427     C      0.966650000000     0.993960000000     0.229340000000    -0.0338392  
C428     C      0.011380000000     0.015640000000     0.128610000000     0.0710344  
C429     C      0.974460000000     0.974920000000     0.129610000000     0.102358   
C430     C      0.967120000000     0.994300000000     0.261650000000    -0.0353274  
C431     C      0.995670000000     0.997690000000     0.312150000000     0.0482422  
C432     C      0.993740000000     0.996280000000     0.177980000000     0.0543035  
H1       H      0.535820000000     0.531820000000     0.621040000000     0.0302788  
H2       H      0.530170000000     0.464780000000     0.878670000000     0.0309904  
H3       H      0.501720000000     0.546910000000     0.719750000000     0.0392294  
H4       H      0.500450000000     0.448510000000     0.778730000000     0.0385429  
H5       H      0.532840000000     0.463420000000     0.823200000000     0.0546873  
H6       H      0.502390000000     0.447050000000     0.722330000000     0.0390971  
H7       H      0.464860000000     0.535580000000     0.817930000000     0.0585131  
H8       H      0.536200000000     0.532760000000     0.677060000000     0.0538415  
H9       H      0.468970000000     0.459100000000     0.678100000000     0.05392    
H10      H      0.500730000000     0.548370000000     0.776130000000     0.0389168  
H11      H      0.469370000000     0.458420000000     0.622090000000     0.0306577  
H12      H      0.423610000000     0.535220000000     0.883140000000     0.0444665  
H13      H      0.461750000000     0.529110000000     0.378620000000     0.0301943  
H14      H      0.528640000000     0.528400000000     0.121520000000     0.0310812  
H15      H      0.445750000000     0.496610000000     0.279420000000     0.0390546  
H16      H      0.544010000000     0.494910000000     0.220250000000     0.0385605  
H17      H      0.530080000000     0.528870000000     0.177020000000     0.0546574  
H18      H      0.545600000000     0.495400000000     0.276640000000     0.0391187  
H19      H      0.455710000000     0.463140000000     0.179740000000     0.0582957  
H20      H      0.460300000000     0.529810000000     0.322640000000     0.0537233  
H21      H      0.533410000000     0.462000000000     0.320540000000     0.0537001  
H22      H      0.444190000000     0.497170000000     0.223050000000     0.0388293  
H23      H      0.534650000000     0.462140000000     0.376550000000     0.0302418  
H24      H      0.453820000000     0.424900000000     0.112720000000     0.0436072  
H25      H      0.462670000000     0.616250000000     0.465510000000     0.0302166  
H26      H      0.532190000000     0.873160000000     0.529030000000     0.0310347  
H27      H      0.493060000000     0.715800000000     0.448560000000     0.0392554  
H28      H      0.502340000000     0.773520000000     0.547270000000     0.0385237  
H29      H      0.533460000000     0.817640000000     0.530080000000     0.0545651  
H30      H      0.503050000000     0.717130000000     0.547970000000     0.039038   
H31      H      0.459030000000     0.814500000000     0.464430000000     0.0584053  
H32      H      0.461650000000     0.672230000000     0.465000000000     0.0536637  
H33      H      0.535050000000     0.673530000000     0.532550000000     0.0536476  
H34      H      0.492270000000     0.772150000000     0.447890000000     0.039107   
H35      H      0.535120000000     0.617530000000     0.532990000000     0.0302736  
H36      H      0.419440000000     0.880480000000     0.470420000000     0.0423574  
H37      H      0.536950000000     0.373670000000     0.463030000000     0.0301818  
H38      H      0.468350000000     0.117050000000     0.528800000000     0.0310523  
H39      H      0.505620000000     0.274210000000     0.447140000000     0.0391026  
H40      H      0.500140000000     0.216190000000     0.545960000000     0.0385014  
H41      H      0.467660000000     0.172570000000     0.529850000000     0.0545093  
H42      H      0.499920000000     0.272580000000     0.546890000000     0.038961   
H43      H      0.539320000000     0.174990000000     0.461170000000     0.0583525  
H44      H      0.537740000000     0.317670000000     0.462230000000     0.0535346  
H45      H      0.467590000000     0.316340000000     0.533150000000     0.0533131  
H46      H      0.505940000000     0.217860000000     0.446250000000     0.0390236  
H47      H      0.467770000000     0.372320000000     0.533850000000     0.0296442  
H48      H      0.578140000000     0.108380000000     0.464260000000     0.0429872  
H49      H      0.460150000000     0.620580000000     0.966050000000     0.0300332  
H50      H      0.526780000000     0.877370000000     0.032250000000     0.0311296  
H51      H      0.493270000000     0.719120000000     0.950870000000     0.0393418  
H52      H      0.496830000000     0.777410000000     0.049600000000     0.0385701  
H53      H      0.528420000000     0.821860000000     0.033920000000     0.0545951  
H54      H      0.497480000000     0.720970000000     0.050670000000     0.0392385  
H55      H      0.458210000000     0.817500000000     0.963840000000     0.0582449  
H56      H      0.460020000000     0.676480000000     0.965770000000     0.0535162  
H57      H      0.529590000000     0.676430000000     0.037260000000     0.0537311  
H58      H      0.492600000000     0.775430000000     0.949820000000     0.0389418  
H59      H      0.528810000000     0.620330000000     0.037390000000     0.0301658  
H60      H      0.418530000000     0.883700000000     0.964510000000     0.0430288  
H61      H      0.530420000000     0.377550000000     0.962690000000     0.0301606  
H62      H      0.463210000000     0.120470000000     0.027260000000     0.0296871  
H63      H      0.499850000000     0.277880000000     0.945540000000     0.038991   
H64      H      0.493230000000     0.219800000000     0.044240000000     0.0382827  
H65      H      0.461910000000     0.175920000000     0.028000000000     0.0539141  
H66      H      0.492130000000     0.276160000000     0.045140000000     0.0388642  
H67      H      0.534040000000     0.178770000000     0.959800000000     0.0581003  
H68      H      0.531510000000     0.321590000000     0.961680000000     0.0534543  
H69      H      0.459270000000     0.319590000000     0.030430000000     0.0533505  
H70      H      0.500910000000     0.221520000000     0.944650000000     0.0387322  
H71      H      0.459070000000     0.375620000000     0.031320000000     0.0294842  
H72      H      0.573680000000     0.112680000000     0.964250000000     0.0423807  
H73      H      0.531970000000     0.959030000000     0.618080000000     0.0301454  
H74      H      0.526780000000     0.031680000000     0.873660000000     0.0314559  
H75      H      0.497250000000     0.945950000000     0.716930000000     0.039091   
H76      H      0.495650000000     0.045600000000     0.773750000000     0.0385322  
H77      H      0.528400000000     0.032070000000     0.818130000000     0.054782   
H78      H      0.497530000000     0.045850000000     0.717350000000     0.0389666  
H79      H      0.461450000000     0.958790000000     0.815460000000     0.0582727  
H80      H      0.531660000000     0.959040000000     0.674100000000     0.0537371  
H81      H      0.464810000000     0.033040000000     0.673070000000     0.0535497  
H82      H      0.496410000000     0.945710000000     0.773310000000     0.0389356  
H83      H      0.465940000000     0.032800000000     0.617060000000     0.030108   
H84      H      0.422160000000     0.958140000000     0.882010000000     0.0433499  
H85      H      0.463230000000     0.961000000000     0.373660000000     0.0307219  
H86      H      0.531820000000     0.966330000000     0.116700000000     0.0308606  
H87      H      0.448890000000     0.995210000000     0.274990000000     0.0392034  
H88      H      0.547690000000     0.996990000000     0.216700000000     0.0385549  
H89      H      0.533330000000     0.964380000000     0.172230000000     0.0546625  
H90      H      0.548770000000     0.995100000000     0.273120000000     0.0390725  
H91      H      0.460420000000     0.031630000000     0.176760000000     0.0584397  
H92      H      0.462750000000     0.960820000000     0.317650000000     0.0539301  
H93      H      0.536340000000     0.028150000000     0.317440000000     0.0538602  
H94      H      0.447830000000     0.996090000000     0.218630000000     0.0389676  
H95      H      0.536580000000     0.027500000000     0.373470000000     0.0306481  
H96      H      0.458710000000     0.071400000000     0.110550000000     0.0434137  
H97      H      0.622900000000     0.461910000000     0.463030000000     0.0302223  
H98      H      0.878540000000     0.529100000000     0.533950000000     0.0313631  
H99      H      0.722020000000     0.446520000000     0.495340000000     0.0392103  
H100     H      0.778960000000     0.545820000000     0.503030000000     0.0386586  
H101     H      0.822990000000     0.529640000000     0.534950000000     0.0546839  
H102     H      0.722550000000     0.546140000000     0.502960000000     0.0391773  
H103     H      0.820820000000     0.462170000000     0.462140000000     0.058337   
H104     H      0.678890000000     0.461940000000     0.462780000000     0.0535863  
H105     H      0.678530000000     0.531160000000     0.534620000000     0.0537045  
H106     H      0.778360000000     0.446220000000     0.495360000000     0.0389356  
H107     H      0.622540000000     0.531030000000     0.533920000000     0.0303736  
H108     H      0.887070000000     0.466780000000     0.422950000000     0.0427403  
H109     H      0.122460000000     0.462760000000     0.537290000000     0.0302213  
H110     H      0.378820000000     0.529390000000     0.469130000000     0.0310744  
H111     H      0.222330000000     0.493530000000     0.552940000000     0.0390805  
H112     H      0.278630000000     0.500760000000     0.453250000000     0.0385248  
H113     H      0.323340000000     0.531550000000     0.469260000000     0.0545582  
H114     H      0.222260000000     0.502060000000     0.453390000000     0.0390798  
H115     H      0.320420000000     0.458230000000     0.536150000000     0.0583496  
H116     H      0.178430000000     0.462060000000     0.537550000000     0.0535536  
H117     H      0.179000000000     0.534480000000     0.468940000000     0.0535586  
H118     H      0.278680000000     0.492180000000     0.552780000000     0.0389635  
H119     H      0.122990000000     0.534230000000     0.468770000000     0.0301543  
H120     H      0.385750000000     0.417630000000     0.530050000000     0.0426158  
H121     H      0.615790000000     0.532080000000     0.037780000000     0.030119   
H122     H      0.872240000000     0.466320000000     0.968400000000     0.0313203  
H123     H      0.715220000000     0.499480000000     0.052590000000     0.0391453  
H124     H      0.772730000000     0.497540000000     0.953340000000     0.0386667  
H125     H      0.816700000000     0.465050000000     0.967810000000     0.0546327  
H126     H      0.716340000000     0.497200000000     0.952710000000     0.0392121  
H127     H      0.814190000000     0.533530000000     0.039690000000     0.0583336  
H128     H      0.671790000000     0.532520000000     0.038520000000     0.0535973  
H129     H      0.672630000000     0.464170000000     0.965860000000     0.0537006  
H130     H      0.771570000000     0.499810000000     0.053210000000     0.038938   
H131     H      0.616640000000     0.464630000000     0.965290000000     0.0303023  
H132     H      0.880820000000     0.572450000000     0.039660000000     0.0434224  
H133     H      0.116110000000     0.530600000000     0.962840000000     0.0300628  
H134     H      0.372510000000     0.465240000000     0.032540000000     0.0312846  
H135     H      0.215100000000     0.496760000000     0.948230000000     0.0390159  
H136     H      0.272860000000     0.496080000000     0.047350000000     0.0386059  
H137     H      0.316980000000     0.463640000000     0.033250000000     0.0545463  
H138     H      0.216460000000     0.495830000000     0.048120000000     0.0390651  
H139     H      0.313920000000     0.530990000000     0.960330000000     0.0581668  
H140     H      0.172090000000     0.530470000000     0.962040000000     0.0535136  
H141     H      0.172370000000     0.462930000000     0.035440000000     0.0535441  
H142     H      0.271450000000     0.496960000000     0.947460000000     0.0386727  
H143     H      0.116360000000     0.463920000000     0.036050000000     0.0301362  
H144     H      0.380350000000     0.570230000000     0.959440000000     0.0442582  
H145     H      0.962090000000     0.530340000000     0.622340000000     0.0296474  
H146     H      0.029280000000     0.527520000000     0.879040000000     0.0310895  
H147     H      0.945750000000     0.497040000000     0.721310000000     0.0391435  
H148     H      0.044120000000     0.493840000000     0.780240000000     0.038496   
H149     H      0.030680000000     0.527930000000     0.823540000000     0.0545824  
H150     H      0.045580000000     0.494600000000     0.723840000000     0.0390422  
H151     H      0.955610000000     0.463000000000     0.820940000000     0.0583307  
H152     H      0.960680000000     0.530490000000     0.678330000000     0.0535512  
H153     H      0.032840000000     0.461660000000     0.679690000000     0.0537244  
H154     H      0.944330000000     0.497310000000     0.777690000000     0.0388673  
H155     H      0.034040000000     0.462340000000     0.623670000000     0.030281   
H156     H      0.953630000000     0.424720000000     0.887970000000     0.0434845  
H157     H      0.967880000000     0.463630000000     0.378700000000     0.0297825  
H158     H      0.033770000000     0.470660000000     0.122520000000     0.030924   
H159     H      0.951400000000     0.498540000000     0.280890000000     0.0391974  
H160     H      0.049590000000     0.504610000000     0.221870000000     0.0384579  
H161     H      0.036240000000     0.470290000000     0.178070000000     0.0547688  
H162     H      0.051150000000     0.503230000000     0.278350000000     0.039223   
H163     H      0.960530000000     0.534410000000     0.182040000000     0.0584614  
H164     H      0.967400000000     0.464140000000     0.322770000000     0.0537599  
H165     H      0.037190000000     0.535380000000     0.323360000000     0.0538184  
H166     H      0.949900000000     0.498980000000     0.224570000000     0.0389403  
H167     H      0.037460000000     0.534070000000     0.379470000000     0.0300697  
H168     H      0.955840000000     0.572150000000     0.114760000000     0.0436948  
H169     H      0.965410000000     0.874830000000     0.461460000000     0.030402   
H170     H      0.035730000000     0.618760000000     0.469270000000     0.0311482  
H171     H      0.951520000000     0.776560000000     0.496910000000     0.0393546  
H172     H      0.050600000000     0.718820000000     0.499700000000     0.038669   
H173     H      0.036830000000     0.674240000000     0.467290000000     0.0548946  
H174     H      0.051400000000     0.775210000000     0.497310000000     0.0392483  
H175     H      0.963330000000     0.678320000000     0.533910000000     0.0585373  
H176     H      0.965280000000     0.818830000000     0.462050000000     0.0539103  
H177     H      0.038710000000     0.820010000000     0.529530000000     0.0538869  
H178     H      0.950740000000     0.720210000000     0.498300000000     0.0390129  
H179     H      0.038600000000     0.876030000000     0.528120000000     0.0303414  
H180     H      0.963330000000     0.612540000000     0.574350000000     0.0432239  
H181     H      0.967830000000     0.376040000000     0.463490000000     0.0308702  
H182     H      0.035210000000     0.119430000000     0.465620000000     0.0299829  
H183     H      0.950970000000     0.277010000000     0.494580000000     0.0394066  
H184     H      0.049180000000     0.218110000000     0.501250000000     0.0383701  
H185     H      0.036940000000     0.175030000000     0.465830000000     0.0545178  
H186     H      0.050590000000     0.274570000000     0.501480000000     0.0392407  
H187     H      0.959330000000     0.177360000000     0.527750000000     0.0584308  
H188     H      0.967370000000     0.320130000000     0.462210000000     0.0540291  
H189     H      0.036050000000     0.318470000000     0.534510000000     0.0537929  
H190     H      0.949640000000     0.220700000000     0.493350000000     0.0387295  
H191     H      0.036340000000     0.374570000000     0.534960000000     0.0301562  
H192     H      0.953570000000     0.109500000000     0.564240000000     0.0447554  
H193     H      0.620540000000     0.956430000000     0.531730000000     0.030145   
H194     H      0.878440000000     0.961370000000     0.461240000000     0.0309759  
H195     H      0.720450000000     0.987810000000     0.546320000000     0.0391519  
H196     H      0.778000000000     0.990750000000     0.447100000000     0.0385749  
H197     H      0.822940000000     0.958220000000     0.460680000000     0.054634   
H198     H      0.721580000000     0.989370000000     0.446440000000     0.0391011  
H199     H      0.818230000000     0.024730000000     0.534250000000     0.0584567  
H200     H      0.676600000000     0.954660000000     0.532000000000     0.0537733  
H201     H      0.678440000000     0.023630000000     0.459980000000     0.053578   
H202     H      0.776850000000     0.988290000000     0.546950000000     0.0389166  
H203     H      0.622470000000     0.024640000000     0.459980000000     0.0297446  
H204     H      0.882970000000     0.066530000000     0.533880000000     0.0443618  
H205     H      0.377080000000     0.963710000000     0.460020000000     0.0298344  
H206     H      0.121950000000     0.968800000000     0.529430000000     0.0309939  
H207     H      0.278700000000     0.998780000000     0.444500000000     0.0392043  
H208     H      0.221020000000     0.003230000000     0.543570000000     0.0385072  
H209     H      0.177500000000     0.968670000000     0.530560000000     0.0546428  
H210     H      0.277480000000     0.002230000000     0.544330000000     0.0391244  
H211     H      0.179400000000     0.033640000000     0.455510000000     0.0584232  
H212     H      0.321130000000     0.964450000000     0.459560000000     0.0535294  
H213     H      0.322050000000     0.034750000000     0.530300000000     0.053613   
H214     H      0.222320000000     0.998860000000     0.443780000000     0.0388657  
H215     H      0.378120000000     0.033240000000     0.530510000000     0.0300916  
H216     H      0.112060000000     0.071420000000     0.453460000000     0.043438   
H217     H      0.029890000000     0.619510000000     0.961540000000     0.0301194  
H218     H      0.963640000000     0.876740000000     0.027870000000     0.0302763  
H219     H      0.046170000000     0.719880000000     0.990530000000     0.0391032  
H220     H      0.946990000000     0.777010000000     0.998250000000     0.0383188  
H221     H      0.963300000000     0.821230000000     0.029380000000     0.0541451  
H222     H      0.946670000000     0.720650000000     0.999380000000     0.0387763  
H223     H      0.030300000000     0.818610000000     0.956140000000     0.058213   
H224     H      0.030330000000     0.675520000000     0.959660000000     0.053532   
H225     H      0.962040000000     0.677810000000     0.032330000000     0.053114   
H226     H      0.046490000000     0.776240000000     0.989380000000     0.038896   
H227     H      0.961690000000     0.621860000000     0.033280000000     0.0289149  
H228     H      0.024370000000     0.884350000000     0.916200000000     0.0424202  
H229     H      0.957810000000     0.376610000000     0.969470000000     0.0296031  
H230     H      0.027320000000     0.119640000000     0.032860000000     0.0309287  
H231     H      0.943140000000     0.277390000000     0.002200000000     0.03928    
H232     H      0.042770000000     0.220660000000     0.005970000000     0.0385877  
H233     H      0.027610000000     0.175140000000     0.036360000000     0.0546254  
H234     H      0.042910000000     0.277070000000     0.007320000000     0.0391479  
H235     H      0.958180000000     0.180120000000     0.965560000000     0.0581572  
H236     H      0.957610000000     0.320660000000     0.969530000000     0.0533453  
H237     H      0.028640000000     0.321070000000     0.039560000000     0.0537488  
H238     H      0.943030000000     0.221070000000     0.000810000000     0.0391482  
H239     H      0.028710000000     0.377120000000     0.038580000000     0.0303549  
H240     H      0.961100000000     0.115700000000     0.923550000000     0.040794   
H241     H      0.617350000000     0.029730000000     0.959060000000     0.0297449  
H242     H      0.873780000000     0.963860000000     0.028390000000     0.0314054  
H243     H      0.716290000000     0.045630000000     0.991350000000     0.0389764  
H244     H      0.773400000000     0.946500000000     0.999820000000     0.0383603  
H245     H      0.818220000000     0.962890000000     0.030310000000     0.0545179  
H246     H      0.716970000000     0.946140000000     0.000430000000     0.0395582  
H247     H      0.814370000000     0.029760000000     0.957000000000     0.0582835  
H248     H      0.673310000000     0.029590000000     0.958890000000     0.0533282  
H249     H      0.672750000000     0.961680000000     0.031960000000     0.0535389  
H250     H      0.772610000000     0.045980000000     0.990740000000     0.0390112  
H251     H      0.616710000000     0.961930000000     0.031220000000     0.0300958  
H252     H      0.879940000000     0.024380000000     0.916570000000     0.0432579  
H253     H      0.116260000000     0.035210000000     0.032230000000     0.0299416  
H254     H      0.372520000000     0.968380000000     0.962830000000     0.029649   
H255     H      0.216290000000     0.004350000000     0.046950000000     0.0391413  
H256     H      0.273360000000     0.000750000000     0.947500000000     0.0383053  
H257     H      0.316990000000     0.967960000000     0.962350000000     0.0539817  
H258     H      0.216980000000     0.000450000000     0.947120000000     0.0389425  
H259     H      0.315630000000     0.037770000000     0.032960000000     0.0582023  
H260     H      0.172290000000     0.036470000000     0.032710000000     0.0534566  
H261     H      0.173770000000     0.967290000000     0.960860000000     0.0535961  
H262     H      0.272650000000     0.004660000000     0.047320000000     0.0388945  
H263     H      0.117820000000     0.966950000000     0.960530000000     0.0306689  
H264     H      0.382750000000     0.075890000000     0.031460000000     0.0429751  
H265     H      0.965800000000     0.030910000000     0.616780000000     0.0299931  
H266     H      0.032180000000     0.966440000000     0.873920000000     0.0303573  
H267     H      0.950700000000     0.997550000000     0.715250000000     0.0392402  
H268     H      0.049360000000     0.995520000000     0.773710000000     0.0382285  
H269     H      0.033920000000     0.964190000000     0.818440000000     0.0541213  
H270     H      0.050530000000     0.994490000000     0.717280000000     0.0389838  
H271     H      0.963250000000     0.033740000000     0.813230000000     0.057996   
H272     H      0.965400000000     0.031020000000     0.672660000000     0.0534654  
H273     H      0.037470000000     0.962050000000     0.672760000000     0.0535386  
H274     H      0.949540000000     0.998610000000     0.771550000000     0.0385214  
H275     H      0.037720000000     0.962850000000     0.616640000000     0.0299351  
H276     H      0.964390000000     0.074520000000     0.878580000000     0.0409069  
H277     H      0.962950000000     0.961580000000     0.373500000000     0.0302531  
H278     H      0.026120000000     0.032080000000     0.116730000000     0.0311454  
H279     H      0.945410000000     0.992450000000     0.274000000000     0.0390913  
H280     H      0.043960000000     0.002020000000     0.216090000000     0.0386289  
H281     H      0.026860000000     0.033220000000     0.172220000000     0.054571   
H282     H      0.044790000000     0.002590000000     0.272470000000     0.0391802  
H283     H      0.960770000000     0.959170000000     0.174870000000     0.0581934  
H284     H      0.961980000000     0.961000000000     0.317510000000     0.0535069  
H285     H      0.029520000000     0.034400000000     0.316240000000     0.0537404  
H286     H      0.944610000000     0.991860000000     0.217640000000     0.0389955  
H287     H      0.030400000000     0.034050000000     0.372240000000     0.0306546  
H288     H      0.966020000000     0.919900000000     0.108640000000     0.0425961  
N1       N      0.496120000000     0.501100000000     0.881340000000    -0.18744    
N2       N      0.502530000000     0.495120000000     0.617340000000    -0.184399   
N3       N      0.491220000000     0.495690000000     0.117540000000    -0.187272   
N4       N      0.498280000000     0.495580000000     0.381820000000    -0.184295   
N5       N      0.495230000000     0.876890000000     0.495790000000    -0.187397   
N6       N      0.498950000000     0.612670000000     0.499260000000    -0.18442    
N7       N      0.503940000000     0.112940000000     0.494120000000    -0.187304   
N8       N      0.502340000000     0.377220000000     0.498480000000    -0.184462   
N9       N      0.491880000000     0.880480000000     0.996780000000    -0.187369   
N10      N      0.494540000000     0.616230000000     0.001670000000    -0.184273   
N11      N      0.499090000000     0.116530000000     0.992840000000    -0.187618   
N12      N      0.494700000000     0.380810000000     0.997080000000    -0.184528   
N13      N      0.493410000000     0.994860000000     0.877630000000    -0.18732    
N14      N      0.498970000000     0.995860000000     0.613340000000    -0.184279   
N15      N      0.495060000000     0.999860000000     0.113700000000    -0.18752    
N16      N      0.499880000000     0.994290000000     0.377780000000    -0.184456   
N17      N      0.882740000000     0.495060000000     0.497770000000    -0.187461   
N18      N      0.618490000000     0.496420000000     0.498500000000    -0.184378   
N19      N      0.382690000000     0.492840000000     0.502830000000    -0.187361   
N20      N      0.118500000000     0.498470000000     0.502970000000    -0.184346   
N21      N      0.876260000000     0.500410000000     0.004560000000    -0.187294   
N22      N      0.611990000000     0.498370000000     0.001480000000    -0.184224   
N23      N      0.376250000000     0.498810000000     0.995870000000    -0.187714   
N24      N      0.112010000000     0.497310000000     0.999500000000    -0.18444    
N25      N      0.991490000000     0.495240000000     0.883090000000    -0.187301   
N26      N      0.998150000000     0.496350000000     0.618770000000    -0.184369   
N27      N      0.995520000000     0.502460000000     0.119270000000    -0.187654   
N28      N      0.002630000000     0.498880000000     0.383310000000    -0.184443   
N29      N      0.998670000000     0.615450000000     0.502470000000    -0.187411   
N30      N      0.001930000000     0.879660000000     0.494800000000    -0.183957   
N31      N      0.996220000000     0.115400000000     0.496400000000    -0.188091   
N32      N      0.002050000000     0.379530000000     0.499370000000    -0.184243   
N33      N      0.881370000000     0.994720000000     0.498180000000    -0.187437   
N34      N      0.617280000000     0.990670000000     0.495880000000    -0.184476   
N35      N      0.117600000000     0.001080000000     0.491690000000    -0.187192   
N36      N      0.381830000000     0.998430000000     0.495270000000    -0.184382   
N37      N      0.997420000000     0.880750000000     0.991430000000    -0.187589   
N38      N      0.995770000000     0.616460000000     0.997510000000    -0.184813   
N39      N      0.992380000000     0.116870000000     0.997420000000    -0.187542   
N40      N      0.993280000000     0.381090000000     0.003980000000    -0.184255   
N41      N      0.877100000000     0.997740000000     0.991980000000    -0.187351   
N42      N      0.612800000000     0.995900000000     0.995170000000    -0.184444   
N43      N      0.377150000000     0.003020000000     0.998380000000    -0.187616   
N44      N      0.112810000000     0.001030000000     0.996350000000    -0.184317   
N45      N      0.996410000000     0.001070000000     0.876610000000    -0.187824   
N46      N      0.001720000000     0.996820000000     0.612490000000    -0.184422   
N47      N      0.992760000000     0.995240000000     0.112700000000    -0.187251   
N48      N      0.996750000000     0.997820000000     0.377100000000    -0.184327   
O1       O      0.995220000000     0.998760000000     0.994790000000    -0.368767   
O2       O      0.975980000000     0.978460000000     0.064840000000    -0.300958   
O3       O      0.065850000000     0.017850000000     0.014510000000    -0.302172   
O4       O      0.014840000000     0.928550000000     0.975280000000    -0.301528   
O5       O      0.011350000000     0.015030000000     0.066890000000    -0.301726   
O6       O      0.977860000000     0.926590000000     0.010190000000    -0.302856   
O7       O      0.066880000000     0.982730000000     0.977280000000    -0.303287   
O8       O      0.978010000000     0.017990000000     0.923760000000    -0.303553   
O9       O      0.011280000000     0.070270000000     0.015100000000    -0.301601   
O10      O      0.014540000000     0.982630000000     0.923140000000    -0.304108   
O11      O      0.976460000000     0.069800000000     0.978030000000    -0.302737   
O12      O      0.924420000000     0.016230000000     0.975830000000    -0.301881   
O13      O      0.923430000000     0.979170000000     0.010650000000    -0.301759   
O14      O      0.999580000000     0.997270000000     0.494770000000    -0.367718   
O15      O      0.015130000000     0.016470000000     0.423230000000    -0.301676   
O16      O      0.982470000000     0.925770000000     0.477250000000    -0.303016   
O17      O      0.071980000000     0.981460000000     0.510910000000    -0.302802   
O18      O      0.980180000000     0.979080000000     0.423890000000    -0.302664   
O19      O      0.069600000000     0.017570000000     0.475110000000    -0.301991   
O20      O      0.020050000000     0.926470000000     0.512020000000    -0.302253   
O21      O      0.982710000000     0.014370000000     0.566290000000    -0.304824   
O22      O      0.927860000000     0.977800000000     0.478400000000    -0.302703   
O23      O      0.020020000000     0.979370000000     0.565780000000    -0.302621   
O24      O      0.928530000000     0.013350000000     0.514760000000    -0.302446   
O25      O      0.980020000000     0.067690000000     0.513800000000    -0.30383    
O26      O      0.015150000000     0.069550000000     0.477040000000    -0.303163   
O27      O      0.994400000000     0.498740000000     0.001170000000    -0.367415   
O28      O      0.975140000000     0.427360000000     0.985460000000    -0.303561   
O29      O      0.065630000000     0.480560000000     0.019010000000    -0.302724   
O30      O      0.011110000000     0.514090000000     0.928850000000    -0.302592   
O31      O      0.011950000000     0.427750000000     0.021030000000    -0.301912   
O32      O      0.974090000000     0.479230000000     0.930990000000    -0.301758   
O33      O      0.065500000000     0.515110000000     0.981230000000    -0.302874   
O34      O      0.977680000000     0.570730000000     0.017250000000    -0.304566   
O35      O      0.013040000000     0.482570000000     0.073080000000    -0.302472   
O36      O      0.013030000000     0.569300000000     0.980310000000    -0.302345   
O37      O      0.977830000000     0.519270000000     0.071860000000    -0.30283    
O38      O      0.924000000000     0.518380000000     0.020150000000    -0.302892   
O39      O      0.922140000000     0.481060000000     0.985650000000    -0.30303    
O40      O      0.000900000000     0.497330000000     0.501080000000    -0.366913   
O41      O      0.019430000000     0.425770000000     0.518850000000    -0.302476   
O42      O      0.930590000000     0.478350000000     0.481130000000    -0.302973   
O43      O      0.980660000000     0.514240000000     0.572000000000    -0.303215   
O44      O      0.984320000000     0.426200000000     0.481660000000    -0.304144   
O45      O      0.017670000000     0.478880000000     0.572630000000    -0.302205   
O46      O      0.928510000000     0.513880000000     0.517440000000    -0.302783   
O47      O      0.018100000000     0.569270000000     0.484470000000    -0.302414   
O48      O      0.984580000000     0.479990000000     0.429390000000    -0.305104   
O49      O      0.980980000000     0.567930000000     0.519270000000    -0.301467   
O50      O      0.020030000000     0.516860000000     0.430140000000    -0.302573   
O51      O      0.072180000000     0.516600000000     0.484570000000    -0.302989   
O52      O      0.071930000000     0.479840000000     0.520200000000    -0.302841   
O53      O      0.495220000000     0.998460000000     0.995660000000    -0.368451   
O54      O      0.422650000000     0.982690000000     0.979610000000    -0.304228   
O55      O      0.478620000000     0.018360000000     0.066450000000    -0.302532   
O56      O      0.511510000000     0.926790000000     0.014270000000    -0.302184   
O57      O      0.425240000000     0.019750000000     0.014340000000    -0.302396   
O58      O      0.474450000000     0.927850000000     0.979410000000    -0.301676   
O59      O      0.512710000000     0.980590000000     0.067300000000    -0.303      
O60      O      0.566580000000     0.014000000000     0.976510000000    -0.303091   
O61      O      0.480310000000     0.070770000000     0.012410000000    -0.304713   
O62      O      0.566110000000     0.979010000000     0.013880000000    -0.302263   
O63      O      0.514990000000     0.068650000000     0.975240000000    -0.301586   
O64      O      0.512790000000     0.013690000000     0.923500000000    -0.302357   
O65      O      0.475080000000     0.979570000000     0.925370000000    -0.302033   
O66      O      0.499580000000     0.994910000000     0.495630000000    -0.367321   
O67      O      0.428690000000     0.015580000000     0.513410000000    -0.302152   
O68      O      0.480980000000     0.977180000000     0.424280000000    -0.302872   
O69      O      0.520280000000     0.065080000000     0.477030000000    -0.302164   
O70      O      0.427880000000     0.979190000000     0.477440000000    -0.303978   
O71      O      0.484000000000     0.067170000000     0.512640000000    -0.302973   
O72      O      0.518670000000     0.011750000000     0.424190000000    -0.302876   
O73      O      0.570230000000     0.974270000000     0.514180000000    -0.302567   
O74      O      0.479190000000     0.924480000000     0.477760000000    -0.302102   
O75      O      0.571460000000     0.010040000000     0.477610000000    -0.303826   
O76      O      0.514860000000     0.922910000000     0.514020000000    -0.302888   
O77      O      0.516480000000     0.976560000000     0.567120000000    -0.302712   
O78      O      0.482070000000     0.014450000000     0.566620000000    -0.302792   
O79      O      0.494370000000     0.498480000000     0.999520000000    -0.367771   
O80      O      0.423830000000     0.517080000000     0.980130000000    -0.303356   
O81      O      0.475810000000     0.426810000000     0.015590000000    -0.302858   
O82      O      0.513440000000     0.481900000000     0.927890000000    -0.303422   
O83      O      0.422290000000     0.480080000000     0.015000000000    -0.302396   
O84      O      0.477870000000     0.518240000000     0.928480000000    -0.302457   
O85      O      0.512790000000     0.427710000000     0.980220000000    -0.303324   
O86      O      0.565280000000     0.515870000000     0.019560000000    -0.302732   
O87      O      0.474210000000     0.479120000000     0.069700000000    -0.301736   
O88      O      0.565810000000     0.481020000000     0.982070000000    -0.303519   
O89      O      0.510620000000     0.514640000000     0.071730000000    -0.302734   
O90      O      0.512210000000     0.569530000000     0.019740000000    -0.30243    
O91      O      0.476940000000     0.570010000000     0.982690000000    -0.304556   
O92      O      0.500800000000     0.494960000000     0.499560000000    -0.367124   
O93      O      0.428560000000     0.511670000000     0.483450000000    -0.303183   
O94      O      0.484260000000     0.423280000000     0.517510000000    -0.303943   
O95      O      0.518040000000     0.477870000000     0.427760000000    -0.302834   
O96      O      0.430460000000     0.475600000000     0.519280000000    -0.301955   
O97      O      0.480530000000     0.512670000000     0.428780000000    -0.303053   
O98      O      0.519580000000     0.424050000000     0.480490000000    -0.30298    
O99      O      0.571980000000     0.513980000000     0.516880000000    -0.303395   
O100     O      0.484650000000     0.476140000000     0.571170000000    -0.302875   
O101     O      0.572120000000     0.478060000000     0.480430000000    -0.303032   
O102     O      0.519390000000     0.513690000000     0.570610000000    -0.303288   
O103     O      0.518130000000     0.566560000000     0.517090000000    -0.30321    
O104     O      0.480920000000     0.565880000000     0.481970000000    -0.303083   
S1       S      0.452100000000     0.548540000000     0.879360000000    -0.0343642  
S2       S      0.441890000000     0.453800000000     0.117860000000    -0.0351276  
S3       S      0.446040000000     0.876300000000     0.453710000000    -0.0333592  
S4       S      0.550630000000     0.113080000000     0.449270000000    -0.0338281  
S5       S      0.446570000000     0.879040000000     0.950540000000    -0.0333919  
S6       S      0.546390000000     0.116840000000     0.948710000000    -0.0346952  
S7       S      0.451040000000     0.945950000000     0.877410000000    -0.0336114  
S8       S      0.446430000000     0.042570000000     0.115200000000    -0.0334034  
S9       S      0.882720000000     0.451150000000     0.450160000000    -0.0339471  
S10      S      0.382240000000     0.444710000000     0.546110000000    -0.0337418  
S11      S      0.876060000000     0.543890000000     0.052530000000    -0.0336409  
S12      S      0.375710000000     0.541410000000     0.947120000000    -0.038071   
S13      S      0.941870000000     0.453700000000     0.882860000000    -0.0349921  
S14      S      0.945010000000     0.542930000000     0.120470000000    -0.0334872  
S15      S      0.950490000000     0.616660000000     0.545680000000    -0.0344027  
S16      S      0.944030000000     0.115480000000     0.534620000000    -0.0389581  
S17      S      0.879700000000     0.037700000000     0.546600000000    -0.0346216  
S18      S      0.117390000000     0.042410000000     0.441880000000    -0.0347487  
S19      S      0.040550000000     0.880500000000     0.943160000000    -0.0339159  
S20      S      0.946650000000     0.118760000000     0.951580000000    -0.0325669  
S21      S      0.875980000000     0.040640000000     0.943480000000    -0.0316579  
S22      S      0.377700000000     0.047780000000     0.045170000000    -0.0336317  
S23      S      0.950260000000     0.046450000000     0.874630000000    -0.0370046  
S24      S      0.949840000000     0.946800000000     0.112960000000    -0.0341157  
Zn1      Zn     0.968790000000     0.971510000000     0.019340000000     0.452304   
Zn2      Zn     0.020230000000     0.024810000000     0.022070000000     0.451528   
Zn3      Zn     0.022080000000     0.973960000000     0.968360000000     0.454029   
Zn4      Zn     0.969420000000     0.024890000000     0.968880000000     0.45711    
Zn5      Zn     0.024080000000     0.024500000000     0.468310000000     0.452912   
Zn6      Zn     0.973220000000     0.970780000000     0.469290000000     0.45162    
Zn7      Zn     0.027190000000     0.971890000000     0.520160000000     0.451487   
Zn8      Zn     0.973540000000     0.022390000000     0.521530000000     0.456082   
Zn9      Zn     0.967150000000     0.472410000000     0.976560000000     0.452423   
Zn10     Zn     0.020470000000     0.473150000000     0.027880000000     0.452166   
Zn11     Zn     0.020270000000     0.523600000000     0.973640000000     0.451608   
Zn12     Zn     0.969310000000     0.526000000000     0.026750000000     0.455777   
Zn13     Zn     0.026710000000     0.471160000000     0.527470000000     0.451752   
Zn14     Zn     0.975920000000     0.471260000000     0.474160000000     0.455447   
Zn15     Zn     0.973500000000     0.522560000000     0.526680000000     0.452297   
Zn16     Zn     0.027040000000     0.524270000000     0.475780000000     0.4517     
Zn17     Zn     0.467500000000     0.973010000000     0.970820000000     0.454009   
Zn18     Zn     0.470700000000     0.026110000000     0.021370000000     0.455703   
Zn19     Zn     0.520680000000     0.971950000000     0.022060000000     0.451879   
Zn20     Zn     0.521580000000     0.022970000000     0.968410000000     0.45291    
Zn21     Zn     0.474280000000     0.022290000000     0.521300000000     0.451433   
Zn22     Zn     0.472730000000     0.969750000000     0.469530000000     0.454311   
Zn23     Zn     0.526690000000     0.019660000000     0.469400000000     0.454276   
Zn24     Zn     0.524590000000     0.967910000000     0.521980000000     0.451283   
Zn25     Zn     0.469060000000     0.525160000000     0.973550000000     0.455797   
Zn26     Zn     0.467380000000     0.471900000000     0.024190000000     0.452604   
Zn27     Zn     0.520800000000     0.473050000000     0.973130000000     0.45275    
Zn28     Zn     0.519880000000     0.523930000000     0.026900000000     0.451615   
Zn29     Zn     0.473440000000     0.520510000000     0.474200000000     0.452233   
Zn30     Zn     0.475870000000     0.468260000000     0.526100000000     0.45386    
Zn31     Zn     0.526910000000     0.469500000000     0.472810000000     0.451921   
Zn32     Zn     0.526790000000     0.521530000000     0.525270000000     0.453083   


