data_structure

_audit_creation_method RASPA-1.0
_audit_creation_date 2023-5-19
_audit_author_name 'Poobodin Mano'

_cell_length_a    43.2145
_cell_length_b    43.1997
_cell_length_c    43.2018
_cell_angle_alpha 90
_cell_angle_beta  90
_cell_angle_gamma 90
_cell_volume      80651.4

_symmetry_cell_setting          triclinic
_symmetry_space_group_name_Hall 'P 1'
_symmetry_space_group_name_H-M  'P 1'
_symmetry_Int_Tables_number     1

_symmetry_equiv_pos_as_xyz 'x,y,z'

loop_
_atom_site_label
_atom_site_type_symbol
_atom_site_fract_x
_atom_site_fract_y
_atom_site_fract_z
_atom_site_charge
C1       C      0.017790000000     0.017600000000     0.103720000000     0.366276   
C2       C      0.104020000000     0.018170000000     0.017840000000     0.366521   
C3       C      0.018160000000     0.931610000000     0.017520000000     0.366331   
C4       C      0.018070000000     0.017520000000     0.931430000000     0.366137   
C5       C      0.017660000000     0.103900000000     0.017450000000     0.3664     
C6       C      0.931840000000     0.017730000000     0.017570000000     0.366554   
C7       C      0.017760000000     0.017560000000     0.431460000000     0.366111   
C8       C      0.103990000000     0.017400000000     0.517270000000     0.367215   
C9       C      0.018070000000     0.103710000000     0.517760000000     0.367025   
C10      C      0.018000000000     0.017500000000     0.603690000000     0.366044   
C11      C      0.017680000000     0.931430000000     0.517710000000     0.367422   
C12      C      0.931770000000     0.017750000000     0.517470000000     0.367663   
C13      C      0.017570000000     0.431660000000     0.017950000000     0.366453   
C14      C      0.018030000000     0.517980000000     0.103970000000     0.36719    
C15      C      0.104020000000     0.517260000000     0.017480000000     0.367251   
C16      C      0.018150000000     0.603850000000     0.017920000000     0.367177   
C17      C      0.931720000000     0.517810000000     0.017810000000     0.367428   
C18      C      0.017700000000     0.517940000000     0.931650000000     0.367384   
C19      C      0.017990000000     0.431440000000     0.517670000000     0.367282   
C20      C      0.017860000000     0.517710000000     0.431710000000     0.367243   
C21      C      0.931680000000     0.517340000000     0.517920000000     0.368529   
C22      C      0.017630000000     0.603710000000     0.517710000000     0.367412   
C23      C      0.103910000000     0.517660000000     0.518040000000     0.368677   
C24      C      0.017710000000     0.517660000000     0.603920000000     0.367346   
C25      C      0.431790000000     0.017720000000     0.017500000000     0.366604   
C26      C      0.518060000000     0.017380000000     0.103490000000     0.367398   
C27      C      0.517740000000     0.931380000000     0.017330000000     0.367562   
C28      C      0.604060000000     0.017350000000     0.017230000000     0.366484   
C29      C      0.518100000000     0.103520000000     0.017360000000     0.367664   
C30      C      0.517790000000     0.017420000000     0.931190000000     0.367218   
C31      C      0.431730000000     0.017150000000     0.517240000000     0.367383   
C32      C      0.517940000000     0.017190000000     0.431210000000     0.367305   
C33      C      0.517740000000     0.103350000000     0.517310000000     0.368121   
C34      C      0.604020000000     0.017400000000     0.517350000000     0.367524   
C35      C      0.517990000000     0.931130000000     0.517350000000     0.36833    
C36      C      0.517830000000     0.017230000000     0.603440000000     0.367032   
C37      C      0.431700000000     0.517160000000     0.017470000000     0.367356   
C38      C      0.518080000000     0.431370000000     0.017610000000     0.367727   
C39      C      0.517930000000     0.517450000000     0.931470000000     0.368831   
C40      C      0.604030000000     0.517610000000     0.017640000000     0.36733    
C41      C      0.517800000000     0.517470000000     0.103720000000     0.368338   
C42      C      0.517660000000     0.603520000000     0.017590000000     0.367478   
C43      C      0.517640000000     0.431090000000     0.517560000000     0.368517   
C44      C      0.431670000000     0.517390000000     0.517710000000     0.36857    
C45      C      0.517840000000     0.517230000000     0.603660000000     0.368564   
C46      C      0.517950000000     0.603400000000     0.517600000000     0.368275   
C47      C      0.517750000000     0.517280000000     0.431550000000     0.368675   
C48      C      0.603920000000     0.517080000000     0.517610000000     0.368588   
C49      C      0.537310000000     0.498000000000     0.883620000000     0.070962   
C50      C      0.537610000000     0.497700000000     0.851300000000    -0.0902305  
C51      C      0.517940000000     0.517400000000     0.834700000000     0.0491682  
C52      C      0.498280000000     0.537130000000     0.851270000000    -0.0902734  
C53      C      0.498580000000     0.536870000000     0.883590000000     0.0709361  
C54      C      0.517930000000     0.517360000000     0.800290000000    -0.00555399 
C55      C      0.545850000000     0.515230000000     0.783730000000    -0.0347648  
C56      C      0.545840000000     0.515190000000     0.751380000000    -0.0348587  
C57      C      0.517900000000     0.517290000000     0.734840000000    -0.00549757 
C58      C      0.489970000000     0.519420000000     0.751400000000    -0.0348645  
C59      C      0.489990000000     0.519450000000     0.783750000000    -0.0347426  
C60      C      0.517880000000     0.517270000000     0.700440000000     0.049178   
C61      C      0.537480000000     0.497480000000     0.683860000000    -0.0902826  
C62      C      0.537160000000     0.497750000000     0.651530000000     0.0709227  
C63      C      0.498560000000     0.536750000000     0.651540000000     0.0709296  
C64      C      0.498270000000     0.537040000000     0.683860000000    -0.090262   
C65      C      0.498410000000     0.498020000000     0.151580000000     0.0708993  
C66      C      0.498090000000     0.497730000000     0.183900000000    -0.0902895  
C67      C      0.517740000000     0.517450000000     0.200500000000     0.0491165  
C68      C      0.537400000000     0.537190000000     0.183930000000    -0.0902691  
C69      C      0.537100000000     0.536920000000     0.151600000000     0.0708831  
C70      C      0.517740000000     0.517430000000     0.234900000000    -0.00555566 
C71      C      0.489800000000     0.515330000000     0.251450000000    -0.0348294  
C72      C      0.489800000000     0.515310000000     0.283800000000    -0.0348151  
C73      C      0.517730000000     0.517370000000     0.300360000000    -0.00553982 
C74      C      0.545670000000     0.519460000000     0.283810000000    -0.0348365  
C75      C      0.545670000000     0.519490000000     0.251460000000    -0.0348264  
C76      C      0.517730000000     0.517350000000     0.334760000000     0.0491315  
C77      C      0.498050000000     0.497640000000     0.351340000000    -0.090252   
C78      C      0.498360000000     0.497900000000     0.383660000000     0.0709821  
C79      C      0.537120000000     0.536730000000     0.383690000000     0.0708889  
C80      C      0.537420000000     0.537030000000     0.351360000000    -0.0902319  
C81      C      0.538060000000     0.651250000000     0.498860000000     0.0709188  
C82      C      0.538450000000     0.683580000000     0.498620000000    -0.0904283  
C83      C      0.518040000000     0.700170000000     0.517550000000     0.0492267  
C84      C      0.497620000000     0.683630000000     0.536510000000    -0.0904611  
C85      C      0.497960000000     0.651310000000     0.536310000000     0.0709551  
C86      C      0.518050000000     0.734550000000     0.517510000000    -0.00569647 
C87      C      0.546070000000     0.751090000000     0.517480000000    -0.0348047  
C88      C      0.546070000000     0.783440000000     0.517550000000    -0.0348172  
C89      C      0.518060000000     0.799980000000     0.517450000000    -0.00566572 
C90      C      0.490040000000     0.783440000000     0.517390000000    -0.0348554  
C91      C      0.490040000000     0.751090000000     0.517510000000    -0.0348071  
C92      C      0.518060000000     0.834360000000     0.517410000000     0.0492074  
C93      C      0.538420000000     0.850950000000     0.536390000000    -0.0904279  
C94      C      0.538040000000     0.883270000000     0.536150000000     0.0709616  
C95      C      0.498030000000     0.883230000000     0.498600000000     0.0709249  
C96      C      0.497680000000     0.850900000000     0.498410000000    -0.0903621  
C97      C      0.537660000000     0.151260000000     0.498510000000     0.0709174  
C98      C      0.537990000000     0.183580000000     0.498290000000    -0.0904319  
C99      C      0.517620000000     0.200130000000     0.517310000000     0.0491802  
C100     C      0.497280000000     0.183540000000     0.536310000000    -0.0904516  
C101     C      0.497680000000     0.151210000000     0.536090000000     0.07088    
C102     C      0.517610000000     0.234510000000     0.517330000000    -0.00567967 
C103     C      0.545620000000     0.251050000000     0.517240000000    -0.0348196  
C104     C      0.545610000000     0.283400000000     0.517370000000    -0.0348159  
C105     C      0.517590000000     0.299930000000     0.517400000000    -0.00567849 
C106     C      0.489580000000     0.283390000000     0.517380000000    -0.0348273  
C107     C      0.489590000000     0.251040000000     0.517440000000    -0.034831   
C108     C      0.517590000000     0.334310000000     0.517450000000     0.0492148  
C109     C      0.538010000000     0.350850000000     0.536400000000    -0.0904276  
C110     C      0.537660000000     0.383170000000     0.536230000000     0.0709524  
C111     C      0.497540000000     0.383240000000     0.498800000000     0.0709366  
C112     C      0.497160000000     0.350910000000     0.498540000000    -0.090433   
C113     C      0.537040000000     0.651430000000     0.036900000000     0.0708242  
C114     C      0.537280000000     0.683760000000     0.037180000000    -0.0901056  
C115     C      0.517500000000     0.700310000000     0.017540000000     0.0485278  
C116     C      0.497770000000     0.683680000000     0.997920000000    -0.0895639  
C117     C      0.498100000000     0.651350000000     0.998260000000     0.0713572  
C118     C      0.517470000000     0.734720000000     0.017500000000    -0.00604348 
C119     C      0.519600000000     0.751300000000     0.045420000000    -0.0347432  
C120     C      0.519620000000     0.783650000000     0.045390000000    -0.0348146  
C121     C      0.517490000000     0.800180000000     0.017430000000    -0.0060177  
C122     C      0.515340000000     0.783590000000     0.989520000000    -0.0341946  
C123     C      0.515330000000     0.751250000000     0.989550000000    -0.0341925  
C124     C      0.517550000000     0.834590000000     0.017400000000     0.0485164  
C125     C      0.537320000000     0.851160000000     0.037030000000    -0.090101   
C126     C      0.537100000000     0.883480000000     0.036700000000     0.0708236  
C127     C      0.498200000000     0.883530000000     0.998010000000     0.0713192  
C128     C      0.497860000000     0.851200000000     0.997730000000    -0.0894531  
C129     C      0.537460000000     0.151390000000     0.997890000000     0.0713149  
C130     C      0.537800000000     0.183710000000     0.997620000000    -0.089444   
C131     C      0.518200000000     0.200310000000     0.017400000000     0.048347   
C132     C      0.498580000000     0.183730000000     0.037170000000    -0.089984   
C133     C      0.498860000000     0.151410000000     0.036880000000     0.0707002  
C134     C      0.518200000000     0.234710000000     0.017400000000    -0.00540132 
C135     C      0.546130000000     0.251270000000     0.015310000000    -0.0349107  
C136     C      0.546130000000     0.283620000000     0.015350000000    -0.0348777  
C137     C      0.518200000000     0.300180000000     0.017480000000    -0.00541296 
C138     C      0.490270000000     0.283610000000     0.019550000000    -0.0348589  
C139     C      0.490270000000     0.251270000000     0.019520000000    -0.0348605  
C140     C      0.518200000000     0.334580000000     0.017530000000     0.0484027  
C141     C      0.537890000000     0.351210000000     0.997870000000    -0.0894767  
C142     C      0.537550000000     0.383530000000     0.998190000000     0.0713456  
C143     C      0.498760000000     0.383460000000     0.036990000000     0.0707632  
C144     C      0.498490000000     0.351130000000     0.037240000000    -0.0900007  
C145     C      0.497680000000     0.998680000000     0.883330000000     0.0713933  
C146     C      0.497310000000     0.998430000000     0.851010000000    -0.0892434  
C147     C      0.517750000000     0.017320000000     0.834410000000     0.0480755  
C148     C      0.538200000000     0.036250000000     0.850950000000    -0.0900433  
C149     C      0.537850000000     0.036070000000     0.883280000000     0.0705788  
C150     C      0.517750000000     0.017270000000     0.800030000000    -0.00548307 
C151     C      0.545770000000     0.017260000000     0.783490000000    -0.0349631  
C152     C      0.545770000000     0.017140000000     0.751140000000    -0.0349871  
C153     C      0.517760000000     0.017230000000     0.734600000000    -0.00547059 
C154     C      0.489740000000     0.017320000000     0.751140000000    -0.034986   
C155     C      0.489740000000     0.017260000000     0.783490000000    -0.0349853  
C156     C      0.517770000000     0.017220000000     0.700220000000     0.0480619  
C157     C      0.538160000000     0.998250000000     0.683660000000    -0.0891886  
C158     C      0.537820000000     0.998470000000     0.651330000000     0.0713686  
C159     C      0.497770000000     0.035980000000     0.651310000000     0.0705621  
C160     C      0.497390000000     0.036190000000     0.683640000000    -0.0900464  
C161     C      0.498050000000     0.036070000000     0.151400000000     0.0705826  
C162     C      0.497690000000     0.036230000000     0.183730000000    -0.0900781  
C163     C      0.518080000000     0.017230000000     0.200260000000     0.0480706  
C164     C      0.538470000000     0.998300000000     0.183670000000    -0.0891661  
C165     C      0.538110000000     0.998560000000     0.151340000000     0.0712668  
C166     C      0.518070000000     0.017180000000     0.234640000000    -0.00545903 
C167     C      0.490050000000     0.017170000000     0.251170000000    -0.0349985  
C168     C      0.490040000000     0.017050000000     0.283520000000    -0.03502    
C169     C      0.518050000000     0.017120000000     0.300060000000    -0.00550773 
C170     C      0.546070000000     0.017210000000     0.283530000000    -0.0349089  
C171     C      0.546090000000     0.017150000000     0.251180000000    -0.0350592  
C172     C      0.518040000000     0.017120000000     0.334440000000     0.0481541  
C173     C      0.497680000000     0.998110000000     0.350990000000    -0.089366   
C174     C      0.498020000000     0.998350000000     0.383320000000     0.0714769  
C175     C      0.537980000000     0.035950000000     0.383340000000     0.0706123  
C176     C      0.538370000000     0.036150000000     0.351010000000    -0.0901064  
C177     C      0.883770000000     0.536610000000     0.498520000000     0.0708556  
C178     C      0.851460000000     0.536800000000     0.498190000000    -0.0903229  
C179     C      0.834920000000     0.517080000000     0.517900000000     0.0491215  
C180     C      0.851540000000     0.497470000000     0.537640000000    -0.0903215  
C181     C      0.883860000000     0.497840000000     0.537350000000     0.0709281  
C182     C      0.800520000000     0.516990000000     0.517850000000    -0.00562221 
C183     C      0.784000000000     0.518980000000     0.489890000000    -0.0347942  
C184     C      0.751670000000     0.518960000000     0.489840000000    -0.0349358  
C185     C      0.735080000000     0.516930000000     0.517760000000    -0.00554445 
C186     C      0.751590000000     0.514910000000     0.545730000000    -0.0348948  
C187     C      0.783930000000     0.514940000000     0.545780000000    -0.03485    
C188     C      0.700680000000     0.516960000000     0.517710000000     0.0490347  
C189     C      0.684140000000     0.536640000000     0.497970000000    -0.0902535  
C190     C      0.651830000000     0.536400000000     0.498240000000     0.0707944  
C191     C      0.651740000000     0.497620000000     0.537070000000     0.0708411  
C192     C      0.684050000000     0.497300000000     0.537410000000    -0.090298   
C193     C      0.383730000000     0.498110000000     0.498380000000     0.0708917  
C194     C      0.351420000000     0.497830000000     0.498190000000    -0.0903397  
C195     C      0.334910000000     0.517500000000     0.517970000000     0.0490751  
C196     C      0.351570000000     0.537140000000     0.537650000000    -0.0902707  
C197     C      0.383880000000     0.536810000000     0.537280000000     0.0707953  
C198     C      0.300510000000     0.517530000000     0.518090000000    -0.00560292 
C199     C      0.283940000000     0.489600000000     0.516010000000    -0.0348468  
C200     C      0.251600000000     0.489620000000     0.516080000000    -0.0348969  
C201     C      0.235070000000     0.517570000000     0.518220000000    -0.00556906 
C202     C      0.251640000000     0.545500000000     0.520330000000    -0.0349005  
C203     C      0.283980000000     0.545480000000     0.520260000000    -0.0348576  
C204     C      0.200670000000     0.517590000000     0.518200000000     0.0490442  
C205     C      0.184100000000     0.497960000000     0.498440000000    -0.090314   
C206     C      0.151790000000     0.498290000000     0.498670000000     0.0708161  
C207     C      0.151760000000     0.536960000000     0.537600000000     0.0708515  
C208     C      0.184070000000     0.537250000000     0.537920000000    -0.0902611  
C209     C      0.883840000000     0.499060000000     0.037810000000     0.0706514  
C210     C      0.851520000000     0.498850000000     0.038160000000    -0.0901786  
C211     C      0.834960000000     0.517790000000     0.017730000000     0.0484282  
C212     C      0.851540000000     0.536730000000     0.997310000000    -0.08969    
C213     C      0.883860000000     0.536510000000     0.997700000000     0.071263   
C214     C      0.800580000000     0.517800000000     0.017710000000    -0.00613612 
C215     C      0.784040000000     0.517750000000     0.045730000000    -0.0349175  
C216     C      0.751690000000     0.517840000000     0.045720000000    -0.0348496  
C217     C      0.735170000000     0.517780000000     0.017690000000    -0.00623701 
C218     C      0.751720000000     0.517740000000     0.989670000000    -0.0342027  
C219     C      0.784060000000     0.517840000000     0.989680000000    -0.0343513  
C220     C      0.700790000000     0.517750000000     0.017670000000     0.0484991  
C221     C      0.684190000000     0.536670000000     0.038080000000    -0.0902374  
C222     C      0.651870000000     0.536420000000     0.037700000000     0.0706767  
C223     C      0.651940000000     0.498960000000     0.997600000000     0.0711708  
C224     C      0.684260000000     0.498780000000     0.997250000000    -0.0897148  
C225     C      0.152010000000     0.535770000000     0.037440000000     0.0706255  
C226     C      0.184320000000     0.535830000000     0.037760000000    -0.0902761  
C227     C      0.200770000000     0.516810000000     0.017320000000     0.0484548  
C228     C      0.184090000000     0.497940000000     0.996930000000    -0.0895997  
C229     C      0.151770000000     0.498300000000     0.997340000000     0.0711399  
C230     C      0.235150000000     0.516670000000     0.017300000000    -0.00617384 
C231     C      0.251700000000     0.516700000000     0.045320000000    -0.034856   
C232     C      0.284040000000     0.516600000000     0.045310000000    -0.0348754  
C233     C      0.300570000000     0.516660000000     0.017280000000    -0.00620581 
C234     C      0.284020000000     0.516690000000     0.989260000000    -0.0342534  
C235     C      0.251670000000     0.516600000000     0.989270000000    -0.0343307  
C236     C      0.334940000000     0.516750000000     0.017280000000     0.0484826  
C237     C      0.351550000000     0.497860000000     0.037730000000    -0.0903003  
C238     C      0.383870000000     0.498220000000     0.037420000000     0.0706483  
C239     C      0.383790000000     0.535670000000     0.997310000000     0.0712638  
C240     C      0.351470000000     0.535750000000     0.996890000000    -0.0896401  
C241     C      0.999000000000     0.538140000000     0.883820000000     0.0713014  
C242     C      0.998730000000     0.538510000000     0.851490000000    -0.0892238  
C243     C      0.017560000000     0.518020000000     0.834880000000     0.0480323  
C244     C      0.036460000000     0.497540000000     0.851410000000    -0.0900624  
C245     C      0.036300000000     0.497880000000     0.883730000000     0.0705337  
C246     C      0.017480000000     0.517990000000     0.800500000000    -0.00551562 
C247     C      0.017430000000     0.545990000000     0.783940000000    -0.0349968  
C248     C      0.017510000000     0.545960000000     0.751580000000    -0.0350435  
C249     C      0.017460000000     0.517920000000     0.735080000000    -0.00544064 
C250     C      0.017410000000     0.489910000000     0.751640000000    -0.0350851  
C251     C      0.017500000000     0.489950000000     0.783990000000    -0.0349724  
C252     C      0.017500000000     0.517870000000     0.700700000000     0.0480115  
C253     C      0.036420000000     0.538310000000     0.684120000000    -0.0900615  
C254     C      0.036260000000     0.537880000000     0.651800000000     0.0706016  
C255     C      0.998950000000     0.497650000000     0.651810000000     0.0713736  
C256     C      0.998660000000     0.497360000000     0.684130000000    -0.08925    
C257     C      0.997950000000     0.499410000000     0.151890000000     0.0713267  
C258     C      0.997590000000     0.499250000000     0.184220000000    -0.0894521  
C259     C      0.018050000000     0.518170000000     0.200750000000     0.0482     
C260     C      0.038510000000     0.537040000000     0.184140000000    -0.0901691  
C261     C      0.038140000000     0.536770000000     0.151810000000     0.070509   
C262     C      0.018050000000     0.518210000000     0.235130000000    -0.00640408 
C263     C      0.990030000000     0.518190000000     0.251660000000    -0.0340807  
C264     C      0.990020000000     0.518230000000     0.284010000000    -0.0340985  
C265     C      0.018030000000     0.518120000000     0.300550000000    -0.0063747  
C266     C      0.046050000000     0.518080000000     0.284030000000    -0.0348748  
C267     C      0.046060000000     0.518210000000     0.251670000000    -0.0348559  
C268     C      0.018010000000     0.518030000000     0.334940000000     0.0482763  
C269     C      0.997570000000     0.536910000000     0.351540000000    -0.0894184  
C270     C      0.997880000000     0.536580000000     0.383860000000     0.0713752  
C271     C      0.037990000000     0.499140000000     0.383800000000     0.0706472  
C272     C      0.038400000000     0.499030000000     0.351470000000    -0.0902645  
C273     C      0.997610000000     0.883590000000     0.536510000000     0.0714787  
C274     C      0.997200000000     0.851260000000     0.536740000000    -0.08942    
C275     C      0.017550000000     0.834660000000     0.517750000000     0.0482843  
C276     C      0.037940000000     0.851200000000     0.498760000000    -0.0903007  
C277     C      0.037630000000     0.883520000000     0.498980000000     0.0706631  
C278     C      0.017530000000     0.800280000000     0.517760000000    -0.00640752 
C279     C      0.989510000000     0.783760000000     0.517840000000    -0.0340595  
C280     C      0.989500000000     0.751400000000     0.517720000000    -0.0340967  
C281     C      0.017510000000     0.734860000000     0.517710000000    -0.00640378 
C282     C      0.045530000000     0.751390000000     0.517720000000    -0.0348826  
C283     C      0.045540000000     0.783740000000     0.517660000000    -0.0348338  
C284     C      0.017520000000     0.700480000000     0.517700000000     0.0483345  
C285     C      0.997100000000     0.683900000000     0.498780000000    -0.0894865  
C286     C      0.997500000000     0.651570000000     0.498990000000     0.0714376  
C287     C      0.037640000000     0.651610000000     0.536390000000     0.0706523  
C288     C      0.037970000000     0.683940000000     0.536620000000    -0.0903441  
C289     C      0.998080000000     0.151620000000     0.499070000000     0.0713641  
C290     C      0.997750000000     0.183940000000     0.498860000000    -0.0894891  
C291     C      0.018180000000     0.200480000000     0.517810000000     0.0482585  
C292     C      0.038580000000     0.183890000000     0.536750000000    -0.0903056  
C293     C      0.038170000000     0.151560000000     0.536530000000     0.0705495  
C294     C      0.018190000000     0.234860000000     0.517810000000    -0.00645914 
C295     C      0.990170000000     0.251390000000     0.517790000000    -0.0340574  
C296     C      0.990160000000     0.283740000000     0.517840000000    -0.0341439  
C297     C      0.018170000000     0.300280000000     0.517730000000    -0.0063867  
C298     C      0.046190000000     0.283760000000     0.517660000000    -0.0349203  
C299     C      0.046200000000     0.251400000000     0.517800000000    -0.0348488  
C300     C      0.018150000000     0.334660000000     0.517710000000     0.0482342  
C301     C      0.997770000000     0.351210000000     0.536700000000    -0.0894583  
C302     C      0.998070000000     0.383530000000     0.536460000000     0.0713359  
C303     C      0.038060000000     0.383580000000     0.498890000000     0.070597   
C304     C      0.038480000000     0.351250000000     0.498690000000    -0.0902529  
C305     C      0.651840000000     0.036870000000     0.497910000000     0.0705682  
C306     C      0.684150000000     0.037230000000     0.497610000000    -0.0901502  
C307     C      0.700780000000     0.017570000000     0.517300000000     0.048195   
C308     C      0.684240000000     0.997860000000     0.537020000000    -0.0893055  
C309     C      0.651920000000     0.998110000000     0.536760000000     0.0713419  
C310     C      0.735170000000     0.017610000000     0.517270000000    -0.00633773 
C311     C      0.751690000000     0.045570000000     0.515170000000    -0.0348061  
C312     C      0.784030000000     0.045610000000     0.515160000000    -0.0348366  
C313     C      0.800610000000     0.017690000000     0.517260000000    -0.00630864 
C314     C      0.784090000000     0.989730000000     0.519340000000    -0.0340186  
C315     C      0.751760000000     0.989690000000     0.519340000000    -0.0340176  
C316     C      0.835010000000     0.017720000000     0.517310000000     0.0482391  
C317     C      0.851610000000     0.037400000000     0.497620000000    -0.0900951  
C318     C      0.883930000000     0.037110000000     0.497950000000     0.0705613  
C319     C      0.883880000000     0.998390000000     0.536840000000     0.0714539  
C320     C      0.851570000000     0.998070000000     0.537070000000    -0.089381   
C321     C      0.383840000000     0.036520000000     0.536580000000     0.0705014  
C322     C      0.351530000000     0.036840000000     0.536780000000    -0.0900789  
C323     C      0.334980000000     0.017170000000     0.517030000000     0.0481152  
C324     C      0.351600000000     0.997480000000     0.497360000000    -0.089331   
C325     C      0.383910000000     0.997770000000     0.497720000000     0.07139    
C326     C      0.300580000000     0.017210000000     0.516950000000    -0.00627542 
C327     C      0.284060000000     0.045170000000     0.519010000000    -0.0349453  
C328     C      0.251720000000     0.045200000000     0.518990000000    -0.0348217  
C329     C      0.235140000000     0.017280000000     0.516900000000    -0.0063556  
C330     C      0.251660000000     0.989320000000     0.514800000000    -0.0340263  
C331     C      0.284000000000     0.989280000000     0.514820000000    -0.0341338  
C332     C      0.200740000000     0.017320000000     0.516970000000     0.0481619  
C333     C      0.184230000000     0.036990000000     0.536740000000    -0.0901555  
C334     C      0.151920000000     0.036710000000     0.536550000000     0.0705916  
C335     C      0.151770000000     0.998010000000     0.497650000000     0.0713214  
C336     C      0.184090000000     0.997670000000     0.497280000000    -0.0892922  
C337     C      0.038340000000     0.883740000000     0.998890000000     0.0709759  
C338     C      0.038760000000     0.851410000000     0.998730000000    -0.0892942  
C339     C      0.018340000000     0.834830000000     0.017660000000     0.0474898  
C340     C      0.997880000000     0.851400000000     0.036550000000    -0.0892292  
C341     C      0.998170000000     0.883720000000     0.036270000000     0.0712185  
C342     C      0.018360000000     0.800450000000     0.017710000000    -0.00623816 
C343     C      0.046380000000     0.783910000000     0.017650000000    -0.0349731  
C344     C      0.046380000000     0.751550000000     0.017810000000    -0.0349153  
C345     C      0.018360000000     0.735020000000     0.017850000000    -0.00623578 
C346     C      0.990350000000     0.751560000000     0.017830000000    -0.0341729  
C347     C      0.990350000000     0.783910000000     0.017840000000    -0.0341327  
C348     C      0.018340000000     0.700630000000     0.017870000000     0.0474876  
C349     C      0.038830000000     0.684040000000     0.036710000000    -0.0899429  
C350     C      0.038410000000     0.651710000000     0.036520000000     0.0703769  
C351     C      0.998090000000     0.651760000000     0.999300000000     0.0718138  
C352     C      0.997800000000     0.684080000000     0.999050000000    -0.088612   
C353     C      0.998840000000     0.151730000000     0.997370000000     0.0717293  
C354     C      0.998480000000     0.184060000000     0.997070000000    -0.0885502  
C355     C      0.017270000000     0.200680000000     0.017590000000     0.0474215  
C356     C      0.036210000000     0.184150000000     0.038030000000    -0.0899879  
C357     C      0.036130000000     0.151830000000     0.037610000000     0.0704109  
C358     C      0.017140000000     0.235060000000     0.017660000000    -0.00607963 
C359     C      0.017090000000     0.251660000000     0.989670000000    -0.0343789  
C360     C      0.017170000000     0.284010000000     0.989730000000    -0.0344981  
C361     C      0.017110000000     0.300490000000     0.017790000000    -0.00597054 
C362     C      0.017020000000     0.283900000000     0.045780000000    -0.035045   
C363     C      0.017120000000     0.251550000000     0.045710000000    -0.0349271  
C364     C      0.017230000000     0.334870000000     0.017850000000     0.0473703  
C365     C      0.036210000000     0.351400000000     0.997450000000    -0.0893882  
C366     C      0.036110000000     0.383730000000     0.997850000000     0.0709162  
C367     C      0.998730000000     0.383820000000     0.038020000000     0.0711557  
C368     C      0.998390000000     0.351490000000     0.038330000000    -0.0890341  
C369     C      0.651930000000     0.997960000000     0.036630000000     0.0711631  
C370     C      0.684240000000     0.997690000000     0.036940000000    -0.0890186  
C371     C      0.700830000000     0.017430000000     0.017290000000     0.0473635  
C372     C      0.684240000000     0.037120000000     0.997600000000    -0.0892098  
C373     C      0.651920000000     0.036780000000     0.997850000000     0.0709074  
C374     C      0.735230000000     0.017490000000     0.017350000000    -0.00612701 
C375     C      0.751830000000     0.989580000000     0.019440000000    -0.0341442  
C376     C      0.784170000000     0.989640000000     0.019500000000    -0.0341247  
C377     C      0.800670000000     0.017620000000     0.017480000000    -0.00613134 
C378     C      0.784070000000     0.045530000000     0.015380000000    -0.0349505  
C379     C      0.751730000000     0.045470000000     0.015320000000    -0.0349501  
C380     C      0.835070000000     0.017680000000     0.017530000000     0.0474252  
C381     C      0.851660000000     0.998010000000     0.037250000000    -0.0890139  
C382     C      0.883980000000     0.998340000000     0.036990000000     0.0711823  
C383     C      0.883970000000     0.037120000000     0.998160000000     0.0709587  
C384     C      0.851650000000     0.037390000000     0.997860000000    -0.0892308  
C385     C      0.384060000000     0.037370000000     0.036960000000     0.0703557  
C386     C      0.351750000000     0.037820000000     0.037320000000    -0.0898035  
C387     C      0.335030000000     0.018190000000     0.017670000000     0.0473393  
C388     C      0.351480000000     0.998390000000     0.997980000000    -0.0884454  
C389     C      0.383800000000     0.998510000000     0.998230000000     0.0718038  
C390     C      0.300630000000     0.018370000000     0.017720000000    -0.00590058 
C391     C      0.284110000000     0.020540000000     0.045680000000    -0.0349459  
C392     C      0.251770000000     0.020630000000     0.045720000000    -0.0349555  
C393     C      0.235180000000     0.018550000000     0.017800000000    -0.00589318 
C394     C      0.251700000000     0.016430000000     0.989840000000    -0.0344674  
C395     C      0.284040000000     0.016340000000     0.989800000000    -0.0344631  
C396     C      0.200780000000     0.018480000000     0.017830000000     0.0473511  
C397     C      0.184150000000     0.038140000000     0.037530000000    -0.0898318  
C398     C      0.151820000000     0.037760000000     0.037230000000     0.0703922  
C399     C      0.151940000000     0.998900000000     0.998490000000     0.0717066  
C400     C      0.184250000000     0.998710000000     0.998170000000    -0.0884698  
C401     C      0.038150000000     0.036100000000     0.651570000000     0.0702728  
C402     C      0.038550000000     0.036260000000     0.683900000000    -0.0898832  
C403     C      0.018130000000     0.017330000000     0.700460000000     0.0472024  
C404     C      0.997670000000     0.998440000000     0.683890000000    -0.0883213  
C405     C      0.997980000000     0.998720000000     0.651560000000     0.0719366  
C406     C      0.018140000000     0.017290000000     0.734850000000    -0.0061891  
C407     C      0.046150000000     0.017320000000     0.751380000000    -0.0349798  
C408     C      0.046150000000     0.017220000000     0.783740000000    -0.0350119  
C409     C      0.018140000000     0.017270000000     0.800270000000    -0.00621029 
C410     C      0.990130000000     0.017310000000     0.783730000000    -0.0341295  
C411     C      0.990120000000     0.017230000000     0.751390000000    -0.0342586  
C412     C      0.018130000000     0.017320000000     0.834660000000     0.0471756  
C413     C      0.038570000000     0.998440000000     0.851270000000    -0.0890668  
C414     C      0.038190000000     0.998720000000     0.883600000000     0.0710823  
C415     C      0.998020000000     0.036100000000     0.883510000000     0.071119   
C416     C      0.997680000000     0.036260000000     0.851180000000    -0.0890981  
C417     C      0.999040000000     0.997450000000     0.151550000000     0.071959   
C418     C      0.998770000000     0.997060000000     0.183880000000    -0.0883288  
C419     C      0.017660000000     0.017490000000     0.200490000000     0.0471901  
C420     C      0.036620000000     0.037930000000     0.183970000000    -0.0899526  
C421     C      0.036450000000     0.037590000000     0.151640000000     0.0702659  
C422     C      0.017600000000     0.017490000000     0.234870000000    -0.0062126  
C423     C      0.017480000000     0.989460000000     0.251410000000    -0.0342441  
C424     C      0.017560000000     0.989460000000     0.283760000000    -0.0341526  
C425     C      0.017580000000     0.017490000000     0.300300000000    -0.00621999 
C426     C      0.017600000000     0.045510000000     0.283760000000    -0.0349811  
C427     C      0.017690000000     0.045510000000     0.251410000000    -0.0350012  
C428     C      0.017610000000     0.017500000000     0.334680000000     0.0471405  
C429     C      0.036470000000     0.996990000000     0.351240000000    -0.0890488  
C430     C      0.036300000000     0.997370000000     0.383560000000     0.0710765  
C431     C      0.999070000000     0.037680000000     0.383600000000     0.0711174  
C432     C      0.998800000000     0.038020000000     0.351270000000    -0.0890382  
H1       H      0.552860000000     0.482280000000     0.895480000000     0.0303346  
H2       H      0.552910000000     0.481770000000     0.839430000000     0.0537639  
H3       H      0.482970000000     0.553030000000     0.839380000000     0.0537412  
H4       H      0.483030000000     0.552610000000     0.895440000000     0.0303089  
H5       H      0.567810000000     0.514070000000     0.795760000000     0.0390585  
H6       H      0.567780000000     0.514010000000     0.739330000000     0.0391032  
H7       H      0.468020000000     0.520580000000     0.739370000000     0.0391704  
H8       H      0.468040000000     0.520630000000     0.795800000000     0.0390922  
H9       H      0.552740000000     0.481540000000     0.695740000000     0.0538183  
H10      H      0.552650000000     0.481970000000     0.639680000000     0.0303415  
H11      H      0.483060000000     0.552520000000     0.639680000000     0.0303941  
H12      H      0.483020000000     0.553000000000     0.695740000000     0.0538151  
H13      H      0.482880000000     0.482280000000     0.139710000000     0.0303025  
H14      H      0.482800000000     0.481800000000     0.195770000000     0.0537608  
H15      H      0.552690000000     0.553110000000     0.195820000000     0.0536775  
H16      H      0.552650000000     0.552670000000     0.139760000000     0.0302371  
H17      H      0.467850000000     0.514200000000     0.239410000000     0.0390699  
H18      H      0.467850000000     0.514150000000     0.295840000000     0.0390964  
H19      H      0.567620000000     0.520590000000     0.295850000000     0.0390456  
H20      H      0.567620000000     0.520640000000     0.239420000000     0.0390387  
H21      H      0.482730000000     0.481750000000     0.339450000000     0.0537832  
H22      H      0.482800000000     0.482170000000     0.395510000000     0.0303597  
H23      H      0.552690000000     0.552440000000     0.395550000000     0.0303354  
H24      H      0.552730000000     0.552940000000     0.339490000000     0.0537279  
H25      H      0.554180000000     0.639370000000     0.483740000000     0.0303514  
H26      H      0.554390000000     0.695470000000     0.483360000000     0.0540392  
H27      H      0.481690000000     0.695570000000     0.551750000000     0.0539897  
H28      H      0.481810000000     0.639470000000     0.551450000000     0.03032    
H29      H      0.568030000000     0.739000000000     0.517760000000     0.0392104  
H30      H      0.568040000000     0.795510000000     0.517320000000     0.0392019  
H31      H      0.468080000000     0.795520000000     0.517590000000     0.0391699  
H32      H      0.468070000000     0.739020000000     0.517250000000     0.0391376  
H33      H      0.554320000000     0.839050000000     0.551690000000     0.0540591  
H34      H      0.554130000000     0.895150000000     0.551310000000     0.0303963  
H35      H      0.481920000000     0.895060000000     0.483420000000     0.0303886  
H36      H      0.481790000000     0.838960000000     0.483120000000     0.0539967  
H37      H      0.553760000000     0.139420000000     0.483330000000     0.0303468  
H38      H      0.553860000000     0.195520000000     0.482990000000     0.0540252  
H39      H      0.481390000000     0.195440000000     0.551610000000     0.0540228  
H40      H      0.481610000000     0.139340000000     0.551260000000     0.0303143  
H41      H      0.567590000000     0.238980000000     0.517430000000     0.0391805  
H42      H      0.567570000000     0.295490000000     0.517100000000     0.0392111  
H43      H      0.467610000000     0.295460000000     0.517670000000     0.0391329  
H44      H      0.467630000000     0.238950000000     0.517230000000     0.0391258  
H45      H      0.553940000000     0.338910000000     0.551640000000     0.0540361  
H46      H      0.553810000000     0.395000000000     0.551360000000     0.03036    
H47      H      0.481410000000     0.395120000000     0.483690000000     0.0302947  
H48      H      0.481220000000     0.339020000000     0.483280000000     0.0539905  
H49      H      0.552820000000     0.639610000000     0.052430000000     0.0303685  
H50      H      0.553200000000     0.695670000000     0.052450000000     0.0537355  
H51      H      0.481820000000     0.695520000000     0.982640000000     0.0538411  
H52      H      0.482360000000     0.639460000000     0.982740000000     0.030411   
H53      H      0.520800000000     0.739280000000     0.067390000000     0.039129   
H54      H      0.520810000000     0.795710000000     0.067330000000     0.0391746  
H55      H      0.514160000000     0.795610000000     0.967550000000     0.0391784  
H56      H      0.514130000000     0.739180000000     0.967610000000     0.0391714  
H57      H      0.553220000000     0.839260000000     0.052330000000     0.0537336  
H58      H      0.552870000000     0.895320000000     0.052230000000     0.0304082  
H59      H      0.482480000000     0.895400000000     0.982470000000     0.03045    
H60      H      0.481910000000     0.839340000000     0.982450000000     0.0538108  
H61      H      0.552950000000     0.139520000000     0.982110000000     0.0303758  
H62      H      0.553060000000     0.195590000000     0.981670000000     0.0538278  
H63      H      0.483330000000     0.195620000000     0.053130000000     0.0537348  
H64      H      0.483350000000     0.139560000000     0.052660000000     0.0304303  
H65      H      0.568080000000     0.239220000000     0.014130000000     0.0389838  
H66      H      0.568090000000     0.295660000000     0.014210000000     0.0389894  
H67      H      0.468320000000     0.295650000000     0.020720000000     0.0391271  
H68      H      0.468320000000     0.239220000000     0.020670000000     0.0391268  
H69      H      0.553220000000     0.339370000000     0.981970000000     0.0538812  
H70      H      0.553110000000     0.395420000000     0.982500000000     0.0304205  
H71      H      0.483180000000     0.395280000000     0.052710000000     0.0303996  
H72      H      0.483180000000     0.339220000000     0.053120000000     0.0537436  
H73      H      0.481530000000     0.983590000000     0.895210000000     0.0303702  
H74      H      0.481350000000     0.983190000000     0.839110000000     0.0539907  
H75      H      0.554150000000     0.051460000000     0.839010000000     0.0539539  
H76      H      0.554010000000     0.051180000000     0.895110000000     0.0304492  
H77      H      0.567730000000     0.016990000000     0.795570000000     0.0391706  
H78      H      0.567740000000     0.017350000000     0.739070000000     0.0390828  
H79      H      0.467780000000     0.017110000000     0.739060000000     0.0391151  
H80      H      0.467770000000     0.017540000000     0.795560000000     0.0390129  
H81      H      0.554060000000     0.982960000000     0.695580000000     0.0540601  
H82      H      0.553930000000     0.983310000000     0.639480000000     0.0304649  
H83      H      0.481660000000     0.051130000000     0.639450000000     0.0304175  
H84      H      0.481480000000     0.051470000000     0.695550000000     0.0539195  
H85      H      0.481940000000     0.051240000000     0.139580000000     0.0303535  
H86      H      0.481780000000     0.051490000000     0.195670000000     0.0538821  
H87      H      0.554390000000     0.983000000000     0.195560000000     0.0539923  
H88      H      0.554220000000     0.983430000000     0.139460000000     0.0304137  
H89      H      0.468100000000     0.016920000000     0.239080000000     0.0391155  
H90      H      0.468080000000     0.017250000000     0.295590000000     0.0390691  
H91      H      0.568030000000     0.017000000000     0.295620000000     0.0391586  
H92      H      0.568050000000     0.017420000000     0.239110000000     0.0391272  
H93      H      0.481820000000     0.982800000000     0.339070000000     0.0541276  
H94      H      0.481930000000     0.983170000000     0.395170000000     0.0304269  
H95      H      0.554040000000     0.051150000000     0.395200000000     0.0304381  
H96      H      0.554250000000     0.051460000000     0.339100000000     0.0539764  
H97      H      0.895580000000     0.552340000000     0.482930000000     0.030288   
H98      H      0.839550000000     0.552640000000     0.482840000000     0.0536897  
H99      H      0.839700000000     0.481570000000     0.552980000000     0.0537449  
H100     H      0.895750000000     0.482180000000     0.552950000000     0.0303108  
H101     H      0.796070000000     0.520100000000     0.467940000000     0.0389639  
H102     H      0.739660000000     0.520050000000     0.467870000000     0.0390161  
H103     H      0.739530000000     0.513800000000     0.567670000000     0.0390671  
H104     H      0.795940000000     0.513850000000     0.567750000000     0.0390901  
H105     H      0.696050000000     0.552510000000     0.482640000000     0.053633   
H106     H      0.640010000000     0.552110000000     0.482640000000     0.0302565  
H107     H      0.639850000000     0.481940000000     0.552640000000     0.0302617  
H108     H      0.695890000000     0.481420000000     0.552770000000     0.0536859  
H109     H      0.395520000000     0.482560000000     0.482600000000     0.0302164  
H110     H      0.339480000000     0.482550000000     0.482300000000     0.0536452  
H111     H      0.339760000000     0.552450000000     0.553610000000     0.0536578  
H112     H      0.395800000000     0.552330000000     0.552990000000     0.0302778  
H113     H      0.295960000000     0.467630000000     0.514800000000     0.0389706  
H114     H      0.239550000000     0.467670000000     0.514910000000     0.0389829  
H115     H      0.239620000000     0.567460000000     0.521530000000     0.0389993  
H116     H      0.296030000000     0.567430000000     0.521410000000     0.0389835  
H117     H      0.195990000000     0.482670000000     0.482520000000     0.053616   
H118     H      0.139960000000     0.482760000000     0.482900000000     0.0302174  
H119     H      0.139890000000     0.552500000000     0.553330000000     0.0302585  
H120     H      0.195940000000     0.552530000000     0.553870000000     0.0536782  
H121     H      0.895680000000     0.483940000000     0.053960000000     0.0303592  
H122     H      0.839590000000     0.483590000000     0.054090000000     0.0538603  
H123     H      0.839640000000     0.551980000000     0.981370000000     0.0540108  
H124     H      0.895720000000     0.551640000000     0.981570000000     0.0304086  
H125     H      0.796100000000     0.518000000000     0.067700000000     0.0391065  
H126     H      0.739610000000     0.517600000000     0.067680000000     0.0390899  
H127     H      0.739650000000     0.517970000000     0.967690000000     0.0391377  
H128     H      0.796140000000     0.517600000000     0.967720000000     0.0392315  
H129     H      0.696080000000     0.551950000000     0.054020000000     0.0538284  
H130     H      0.639990000000     0.551530000000     0.053840000000     0.0303078  
H131     H      0.640110000000     0.483810000000     0.981460000000     0.0303361  
H132     H      0.696190000000     0.483540000000     0.981320000000     0.0539287  
H133     H      0.140250000000     0.550960000000     0.053590000000     0.0303206  
H134     H      0.196320000000     0.551050000000     0.053670000000     0.0538488  
H135     H      0.195920000000     0.482640000000     0.980970000000     0.0539805  
H136     H      0.139820000000     0.483230000000     0.981220000000     0.0304017  
H137     H      0.239630000000     0.516470000000     0.067290000000     0.0390952  
H138     H      0.296110000000     0.516850000000     0.067270000000     0.0391301  
H139     H      0.296090000000     0.516460000000     0.967290000000     0.0391741  
H140     H      0.239600000000     0.516860000000     0.967310000000     0.0392236  
H141     H      0.339680000000     0.482560000000     0.053640000000     0.0538789  
H142     H      0.395760000000     0.483140000000     0.053580000000     0.0303042  
H143     H      0.395610000000     0.550860000000     0.981200000000     0.0303503  
H144     H      0.339520000000     0.550970000000     0.980940000000     0.0539337  
H145     H      0.983950000000     0.554320000000     0.895710000000     0.0304342  
H146     H      0.983500000000     0.554490000000     0.839610000000     0.0540161  
H147     H      0.051650000000     0.481550000000     0.839470000000     0.0537922  
H148     H      0.051390000000     0.481690000000     0.895550000000     0.0303517  
H149     H      0.017700000000     0.567980000000     0.795990000000     0.0390531  
H150     H      0.017270000000     0.567920000000     0.739490000000     0.0391471  
H151     H      0.017650000000     0.467920000000     0.739600000000     0.0390217  
H152     H      0.017250000000     0.467990000000     0.796090000000     0.0390371  
H153     H      0.051610000000     0.554310000000     0.696030000000     0.0538828  
H154     H      0.051370000000     0.554030000000     0.639940000000     0.0304116  
H155     H      0.983890000000     0.481440000000     0.639960000000     0.030385   
H156     H      0.983420000000     0.481410000000     0.696050000000     0.0539478  
H157     H      0.981770000000     0.484300000000     0.140070000000     0.0302993  
H158     H      0.981630000000     0.484040000000     0.196160000000     0.0538478  
H159     H      0.054480000000     0.552280000000     0.196030000000     0.0538357  
H160     H      0.054300000000     0.551830000000     0.139920000000     0.0303174  
H161     H      0.968070000000     0.518460000000     0.239580000000     0.0390796  
H162     H      0.968050000000     0.517980000000     0.296070000000     0.0390925  
H163     H      0.068010000000     0.518270000000     0.296110000000     0.0391209  
H164     H      0.068030000000     0.517950000000     0.239610000000     0.0390741  
H165     H      0.981650000000     0.552210000000     0.339650000000     0.0538889  
H166     H      0.981720000000     0.551670000000     0.395740000000     0.0303615  
H167     H      0.054110000000     0.483980000000     0.395630000000     0.0303423  
H168     H      0.054350000000     0.483820000000     0.339530000000     0.0538692  
H169     H      0.981520000000     0.895470000000     0.551670000000     0.0303719  
H170     H      0.981280000000     0.839360000000     0.552030000000     0.0539548  
H171     H      0.053820000000     0.839260000000     0.483470000000     0.0538433  
H172     H      0.053740000000     0.895350000000     0.483810000000     0.0303198  
H173     H      0.967550000000     0.795840000000     0.517640000000     0.0391581  
H174     H      0.967540000000     0.739330000000     0.517990000000     0.0391904  
H175     H      0.067490000000     0.739320000000     0.517430000000     0.0390882  
H176     H      0.067510000000     0.795810000000     0.517870000000     0.0390732  
H177     H      0.981150000000     0.695810000000     0.483540000000     0.0539817  
H178     H      0.981370000000     0.639700000000     0.483880000000     0.0303572  
H179     H      0.053810000000     0.639780000000     0.551510000000     0.0302878  
H180     H      0.053900000000     0.695860000000     0.551870000000     0.0538414  
H181     H      0.981930000000     0.139790000000     0.483940000000     0.0302994  
H182     H      0.981830000000     0.195880000000     0.483600000000     0.0538617  
H183     H      0.054520000000     0.195790000000     0.552000000000     0.0538381  
H184     H      0.054290000000     0.139670000000     0.551650000000     0.0302765  
H185     H      0.968210000000     0.239310000000     0.518070000000     0.0391128  
H186     H      0.968200000000     0.295810000000     0.517610000000     0.0391717  
H187     H      0.068150000000     0.295840000000     0.517850000000     0.0390471  
H188     H      0.068170000000     0.239330000000     0.517540000000     0.0390152  
H189     H      0.981900000000     0.339280000000     0.552010000000     0.0539035  
H190     H      0.981960000000     0.395370000000     0.551630000000     0.0303664  
H191     H      0.054130000000     0.395460000000     0.483700000000     0.03029    
H192     H      0.054390000000     0.339350000000     0.483400000000     0.0538068  
H193     H      0.639950000000     0.052410000000     0.482200000000     0.030283   
H194     H      0.695990000000     0.052560000000     0.481700000000     0.0536177  
H195     H      0.696150000000     0.982560000000     0.552910000000     0.053649   
H196     H      0.640100000000     0.982530000000     0.552490000000     0.0302917  
H197     H      0.739630000000     0.067520000000     0.514020000000     0.0389597  
H198     H      0.796050000000     0.067580000000     0.514010000000     0.0389812  
H199     H      0.796160000000     0.967780000000     0.520490000000     0.039018   
H200     H      0.739750000000     0.967710000000     0.520490000000     0.0390006  
H201     H      0.839760000000     0.052700000000     0.481690000000     0.0536673  
H202     H      0.895810000000     0.052660000000     0.482230000000     0.0303685  
H203     H      0.895710000000     0.982850000000     0.552600000000     0.0303347  
H204     H      0.839680000000     0.982770000000     0.552970000000     0.0537001  
H205     H      0.395660000000     0.052070000000     0.552330000000     0.0302499  
H206     H      0.339620000000     0.052160000000     0.552660000000     0.0535057  
H207     H      0.339750000000     0.982170000000     0.481430000000     0.05362    
H208     H      0.395790000000     0.982210000000     0.482020000000     0.0302593  
H209     H      0.296110000000     0.067110000000     0.520180000000     0.0389573  
H210     H      0.239700000000     0.067170000000     0.520150000000     0.038907   
H211     H      0.239600000000     0.967370000000     0.513640000000     0.038944   
H212     H      0.296010000000     0.967310000000     0.513680000000     0.0389775  
H213     H      0.196170000000     0.052270000000     0.552640000000     0.0535049  
H214     H      0.140130000000     0.052260000000     0.552330000000     0.0302156  
H215     H      0.139860000000     0.982480000000     0.481940000000     0.0303002  
H216     H      0.195910000000     0.982360000000     0.481330000000     0.0536491  
H217     H      0.054470000000     0.895600000000     0.983770000000     0.0304573  
H218     H      0.054730000000     0.839490000000     0.983510000000     0.0539289  
H219     H      0.981950000000     0.839490000000     0.051810000000     0.0538516  
H220     H      0.981990000000     0.895570000000     0.051360000000     0.0304031  
H221     H      0.068340000000     0.795980000000     0.017830000000     0.0390987  
H222     H      0.068340000000     0.739470000000     0.017540000000     0.039124   
H223     H      0.968380000000     0.739490000000     0.018150000000     0.0390722  
H224     H      0.968380000000     0.795980000000     0.017610000000     0.0391077  
H225     H      0.054860000000     0.695940000000     0.051880000000     0.0538267  
H226     H      0.054600000000     0.639830000000     0.051570000000     0.0304215  
H227     H      0.981860000000     0.639930000000     0.984260000000     0.0305187  
H228     H      0.981810000000     0.696010000000     0.983860000000     0.0539868  
H229     H      0.983820000000     0.139840000000     0.981160000000     0.0303764  
H230     H      0.983230000000     0.195940000000     0.981100000000     0.05393    
H231     H      0.051370000000     0.196100000000     0.054040000000     0.0537361  
H232     H      0.051260000000     0.140010000000     0.053780000000     0.030351   
H233     H      0.017380000000     0.239630000000     0.967670000000     0.0389837  
H234     H      0.016950000000     0.296120000000     0.967790000000     0.0390884  
H235     H      0.017250000000     0.295930000000     0.067780000000     0.0389825  
H236     H      0.016870000000     0.239430000000     0.067660000000     0.0389969  
H237     H      0.051400000000     0.339460000000     0.981480000000     0.0538586  
H238     H      0.051260000000     0.395540000000     0.981710000000     0.0304208  
H239     H      0.983670000000     0.395710000000     0.054190000000     0.0304295  
H240     H      0.983110000000     0.339600000000     0.054270000000     0.0538985  
H241     H      0.640080000000     0.982360000000     0.052320000000     0.0303801  
H242     H      0.696120000000     0.982360000000     0.052830000000     0.0536074  
H243     H      0.696110000000     0.052480000000     0.981730000000     0.0535846  
H244     H      0.640070000000     0.052350000000     0.982140000000     0.0303302  
H245     H      0.739830000000     0.967600000000     0.020550000000     0.0390414  
H246     H      0.796240000000     0.967700000000     0.020660000000     0.0390246  
H247     H      0.796070000000     0.067510000000     0.014270000000     0.0389525  
H248     H      0.739660000000     0.067410000000     0.014170000000     0.0389073  
H249     H      0.839790000000     0.982670000000     0.053130000000     0.0536621  
H250     H      0.895830000000     0.982790000000     0.052720000000     0.0304285  
H251     H      0.895820000000     0.052690000000     0.982450000000     0.0304076  
H252     H      0.839780000000     0.052700000000     0.981950000000     0.0536639  
H253     H      0.396010000000     0.053050000000     0.052490000000     0.0303277  
H254     H      0.339970000000     0.053790000000     0.052650000000     0.053486   
H255     H      0.339500000000     0.982540000000     0.982690000000     0.0537263  
H256     H      0.395550000000     0.982720000000     0.982660000000     0.0303511  
H257     H      0.296180000000     0.021670000000     0.067620000000     0.0389624  
H258     H      0.239760000000     0.021820000000     0.067690000000     0.0389912  
H259     H      0.239640000000     0.015290000000     0.967900000000     0.0388453  
H260     H      0.296040000000     0.015140000000     0.967830000000     0.0388494  
H261     H      0.195980000000     0.054070000000     0.052840000000     0.0535967  
H262     H      0.139920000000     0.053450000000     0.052790000000     0.0303524  
H263     H      0.140140000000     0.983130000000     0.982940000000     0.0303712  
H264     H      0.196160000000     0.982830000000     0.982860000000     0.0536986  
H265     H      0.054290000000     0.051230000000     0.639720000000     0.0303876  
H266     H      0.054520000000     0.051480000000     0.695820000000     0.0537217  
H267     H      0.981730000000     0.983190000000     0.695790000000     0.0540536  
H268     H      0.981810000000     0.983640000000     0.639700000000     0.0304671  
H269     H      0.068120000000     0.017090000000     0.739310000000     0.0390296  
H270     H      0.068120000000     0.017470000000     0.795810000000     0.0389309  
H271     H      0.968160000000     0.017070000000     0.795810000000     0.0391041  
H272     H      0.968160000000     0.017490000000     0.739310000000     0.0390497  
H273     H      0.054530000000     0.983190000000     0.839390000000     0.0539178  
H274     H      0.054340000000     0.983640000000     0.895500000000     0.0304236  
H275     H      0.981850000000     0.051230000000     0.895320000000     0.0304077  
H276     H      0.981730000000     0.051480000000     0.839230000000     0.0537971  
H277     H      0.983940000000     0.981310000000     0.139660000000     0.0304406  
H278     H      0.983500000000     0.981120000000     0.195760000000     0.0540389  
H279     H      0.051850000000     0.053860000000     0.195920000000     0.0536837  
H280     H      0.051580000000     0.053750000000     0.139830000000     0.0303104  
H281     H      0.017690000000     0.967490000000     0.239340000000     0.0390585  
H282     H      0.017260000000     0.967490000000     0.295840000000     0.0391164  
H283     H      0.017900000000     0.067490000000     0.295830000000     0.0389475  
H284     H      0.017500000000     0.067480000000     0.239340000000     0.0390169  
H285     H      0.051630000000     0.980970000000     0.339310000000     0.053821   
H286     H      0.051360000000     0.981160000000     0.395410000000     0.0304489  
H287     H      0.984050000000     0.053910000000     0.395460000000     0.0304409  
H288     H      0.983610000000     0.054030000000     0.339370000000     0.0539092  
N1       N      0.517940000000     0.517440000000     0.899690000000    -0.184473   
N2       N      0.517850000000     0.517240000000     0.635450000000    -0.184338   
N3       N      0.517770000000     0.517470000000     0.135510000000    -0.184374   
N4       N      0.517740000000     0.517300000000     0.399760000000    -0.184384   
N5       N      0.517990000000     0.635190000000     0.517590000000    -0.184347   
N6       N      0.518020000000     0.899340000000     0.517370000000    -0.184321   
N7       N      0.517690000000     0.135150000000     0.517300000000    -0.184268   
N8       N      0.517610000000     0.399290000000     0.517530000000    -0.184332   
N9       N      0.517600000000     0.635310000000     0.017590000000    -0.184539   
N10      N      0.517680000000     0.899590000000     0.017350000000    -0.184497   
N11      N      0.518150000000     0.135310000000     0.017380000000    -0.184514   
N12      N      0.518130000000     0.399580000000     0.017600000000    -0.184533   
N13      N      0.517770000000     0.017390000000     0.899390000000    -0.184471   
N14      N      0.517800000000     0.017220000000     0.635230000000    -0.184504   
N15      N      0.518070000000     0.017340000000     0.135280000000    -0.184551   
N16      N      0.517980000000     0.017160000000     0.399420000000    -0.184577   
N17      N      0.899900000000     0.517260000000     0.517940000000    -0.184371   
N18      N      0.635700000000     0.517030000000     0.517640000000    -0.184375   
N19      N      0.399890000000     0.517440000000     0.517780000000    -0.184395   
N20      N      0.135690000000     0.517640000000     0.518110000000    -0.184425   
N21      N      0.899930000000     0.517790000000     0.017770000000    -0.184447   
N22      N      0.635820000000     0.517670000000     0.017650000000    -0.184429   
N23      N      0.135800000000     0.517110000000     0.017420000000    -0.184452   
N24      N      0.399910000000     0.517020000000     0.017400000000    -0.184448   
N25      N      0.017670000000     0.517990000000     0.899860000000    -0.184561   
N26      N      0.017640000000     0.517730000000     0.635710000000    -0.18457    
N27      N      0.018040000000     0.518060000000     0.135770000000    -0.184542   
N28      N      0.017910000000     0.517800000000     0.399920000000    -0.184589   
N29      N      0.017640000000     0.899640000000     0.517740000000    -0.184658   
N30      N      0.017590000000     0.635500000000     0.517690000000    -0.184655   
N31      N      0.018100000000     0.135500000000     0.517800000000    -0.184599   
N32      N      0.018040000000     0.399650000000     0.517660000000    -0.184598   
N33      N      0.635800000000     0.017460000000     0.517340000000    -0.184659   
N34      N      0.899990000000     0.017750000000     0.517420000000    -0.184638   
N35      N      0.399950000000     0.017140000000     0.517180000000    -0.184652   
N36      N      0.135770000000     0.017380000000     0.517150000000    -0.184641   
N37      N      0.018220000000     0.899820000000     0.017550000000    -0.184714   
N38      N      0.018220000000     0.635640000000     0.017920000000    -0.184829   
N39      N      0.017550000000     0.135690000000     0.017470000000    -0.184776   
N40      N      0.017470000000     0.399860000000     0.017950000000    -0.184682   
N41      N      0.635840000000     0.017360000000     0.017230000000    -0.184755   
N42      N      0.900050000000     0.017740000000     0.017580000000    -0.184683   
N43      N      0.400010000000     0.017860000000     0.017560000000    -0.184812   
N44      N      0.135800000000     0.018290000000     0.017860000000    -0.184777   
N45      N      0.018040000000     0.017440000000     0.635480000000    -0.184798   
N46      N      0.018090000000     0.017440000000     0.899640000000    -0.184812   
N47      N      0.017760000000     0.017540000000     0.135510000000    -0.18486    
N48      N      0.017710000000     0.017540000000     0.399670000000    -0.18479    
O1       O      0.017930000000     0.017760000000     0.017580000000    -0.368149   
O2       O      0.999910000000     0.999310000000     0.088950000000    -0.301226   
O3       O      0.089210000000     0.036240000000     0.035920000000    -0.302571   
O4       O      0.036480000000     0.946370000000     0.999650000000    -0.301961   
O5       O      0.035690000000     0.035950000000     0.089060000000    -0.302943   
O6       O      0.999790000000     0.946300000000     0.035390000000    -0.302041   
O7       O      0.089410000000     0.999990000000     0.999730000000    -0.301789   
O8       O      0.999760000000     0.035470000000     0.946090000000    -0.302049   
O9       O      0.035550000000     0.089250000000     0.035830000000    -0.302855   
O10      O      0.036380000000     0.999670000000     0.946220000000    -0.301843   
O11      O      0.999850000000     0.089120000000     0.999100000000    -0.301422   
O12      O      0.946550000000     0.035810000000     0.999430000000    -0.302254   
O13      O      0.946550000000     0.999610000000     0.035670000000    -0.302032   
O14      O      0.017880000000     0.017570000000     0.517570000000    -0.367777   
O15      O      0.999970000000     0.035970000000     0.446190000000    -0.301966   
O16      O      0.089190000000     0.999340000000     0.499170000000    -0.302093   
O17      O      0.036300000000     0.088930000000     0.535700000000    -0.302714   
O18      O      0.035590000000     0.999160000000     0.446160000000    -0.301974   
O19      O      0.999810000000     0.089040000000     0.499760000000    -0.302204   
O20      O      0.089360000000     0.035470000000     0.535480000000    -0.303126   
O21      O      0.999660000000     0.999620000000     0.588970000000    -0.301146   
O22      O      0.035920000000     0.946100000000     0.499700000000    -0.303054   
O23      O      0.036290000000     0.035420000000     0.588970000000    -0.302694   
O24      O      0.999480000000     0.946200000000     0.535680000000    -0.302053   
O25      O      0.946430000000     0.999670000000     0.535640000000    -0.302389   
O26      O      0.946520000000     0.035810000000     0.499350000000    -0.302966   
O27      O      0.017870000000     0.517750000000     0.017820000000    -0.367441   
O28      O      0.035500000000     0.446300000000     0.999610000000    -0.302354   
O29      O      0.999710000000     0.500050000000     0.089320000000    -0.302338   
O30      O      0.089450000000     0.535310000000     0.035770000000    -0.302866   
O31      O      0.999720000000     0.446440000000     0.036260000000    -0.301932   
O32      O      0.089150000000     0.499360000000     0.999280000000    -0.302029   
O33      O      0.036350000000     0.535830000000     0.089190000000    -0.302754   
O34      O      0.999710000000     0.589190000000     0.000110000000    -0.302706   
O35      O      0.946430000000     0.499860000000     0.036080000000    -0.302777   
O36      O      0.036540000000     0.589080000000     0.035710000000    -0.302704   
O37      O      0.946450000000     0.535790000000     0.999580000000    -0.302185   
O38      O      0.999880000000     0.536280000000     0.946430000000    -0.302006   
O39      O      0.035540000000     0.499530000000     0.946310000000    -0.30301    
O40      O      0.017800000000     0.517580000000     0.517820000000    -0.36717    
O41      O      0.999780000000     0.446110000000     0.535710000000    -0.302282   
O42      O      0.036130000000     0.499740000000     0.446400000000    -0.302802   
O43      O      0.946330000000     0.535450000000     0.499770000000    -0.303228   
O44      O      0.036160000000     0.446200000000     0.499660000000    -0.302805   
O45      O      0.946450000000     0.499290000000     0.536050000000    -0.30295    
O46      O      0.999560000000     0.535600000000     0.446450000000    -0.30216    
O47      O      0.035920000000     0.589040000000     0.535650000000    -0.303147   
O48      O      0.089240000000     0.499620000000     0.499840000000    -0.303339   
O49      O      0.999360000000     0.588950000000     0.499790000000    -0.302031   
O50      O      0.089160000000     0.535730000000     0.536150000000    -0.303141   
O51      O      0.035580000000     0.536000000000     0.589210000000    -0.302943   
O52      O      0.999890000000     0.499260000000     0.589210000000    -0.302159   
O53      O      0.517930000000     0.017450000000     0.017340000000    -0.367621   
O54      O      0.446400000000     0.999530000000     0.999390000000    -0.30154    
O55      O      0.499840000000     0.035400000000     0.088810000000    -0.302987   
O56      O      0.535910000000     0.946070000000     0.035410000000    -0.302816   
O57      O      0.446610000000     0.035790000000     0.035560000000    -0.302956   
O58      O      0.499630000000     0.946130000000     0.999250000000    -0.302216   
O59      O      0.536250000000     0.999390000000     0.088740000000    -0.302158   
O60      O      0.589340000000     0.035500000000     0.999160000000    -0.302297   
O61      O      0.500080000000     0.088830000000     0.035580000000    -0.303021   
O62      O      0.589350000000     0.999220000000     0.035320000000    -0.302081   
O63      O      0.536070000000     0.088790000000     0.999130000000    -0.302444   
O64      O      0.536100000000     0.035350000000     0.945880000000    -0.302745   
O65      O      0.499520000000     0.999510000000     0.945940000000    -0.302056   
O66      O      0.517870000000     0.017240000000     0.517320000000    -0.367124   
O67      O      0.446410000000     0.035260000000     0.535370000000    -0.303078   
O68      O      0.499770000000     0.999150000000     0.445920000000    -0.302119   
O69      O      0.535950000000     0.088660000000     0.499280000000    -0.302949   
O70      O      0.446480000000     0.999060000000     0.499140000000    -0.302292   
O71      O      0.499570000000     0.088610000000     0.535340000000    -0.302917   
O72      O      0.536090000000     0.035260000000     0.445930000000    -0.30278    
O73      O      0.589340000000     0.999260000000     0.535450000000    -0.302322   
O74      O      0.499770000000     0.945820000000     0.499330000000    -0.302905   
O75      O      0.589270000000     0.035470000000     0.499240000000    -0.303139   
O76      O      0.536180000000     0.945870000000     0.535360000000    -0.302824   
O77      O      0.536070000000     0.999250000000     0.588730000000    -0.301982   
O78      O      0.499600000000     0.035220000000     0.588710000000    -0.302686   
O79      O      0.517870000000     0.517440000000     0.017590000000    -0.366974   
O80      O      0.446380000000     0.535190000000     0.999260000000    -0.302271   
O81      O      0.499890000000     0.446050000000     0.035670000000    -0.302919   
O82      O      0.536020000000     0.499350000000     0.946200000000    -0.303233   
O83      O      0.446460000000     0.499250000000     0.035750000000    -0.302787   
O84      O      0.499810000000     0.535550000000     0.946180000000    -0.303128   
O85      O      0.536190000000     0.446120000000     0.999540000000    -0.302438   
O86      O      0.589280000000     0.535560000000     0.035880000000    -0.302766   
O87      O      0.499750000000     0.499310000000     0.088990000000    -0.303044   
O88      O      0.589350000000     0.499620000000     0.999380000000    -0.302306   
O89      O      0.535870000000     0.535620000000     0.089010000000    -0.303111   
O90      O      0.535870000000     0.588840000000     0.035640000000    -0.302798   
O91      O      0.499520000000     0.588760000000     0.999550000000    -0.30234    
O92      O      0.517790000000     0.517240000000     0.517600000000    -0.366652   
O93      O      0.535910000000     0.445770000000     0.535520000000    -0.303085   
O94      O      0.446320000000     0.499290000000     0.499540000000    -0.303107   
O95      O      0.499830000000     0.535450000000     0.588960000000    -0.303076   
O96      O      0.499410000000     0.445840000000     0.499610000000    -0.30302    
O97      O      0.535840000000     0.499020000000     0.588950000000    -0.303164   
O98      O      0.446440000000     0.535440000000     0.535820000000    -0.303236   
O99      O      0.536180000000     0.588650000000     0.499640000000    -0.302929   
O100     O      0.499640000000     0.499170000000     0.446250000000    -0.303095   
O101     O      0.499680000000     0.588710000000     0.535570000000    -0.302991   
O102     O      0.535870000000     0.535370000000     0.446260000000    -0.303162   
O103     O      0.589250000000     0.535190000000     0.499480000000    -0.30323    
O104     O      0.589170000000     0.499020000000     0.535740000000    -0.303166   
Zn1      Zn     0.991810000000     0.991520000000     0.043630000000     0.45317    
Zn2      Zn     0.043840000000     0.044030000000     0.043830000000     0.451431   
Zn3      Zn     0.044260000000     0.991700000000     0.991550000000     0.452863   
Zn4      Zn     0.991800000000     0.043780000000     0.991310000000     0.452858   
Zn5      Zn     0.991820000000     0.043830000000     0.491480000000     0.452578   
Zn6      Zn     0.043880000000     0.991310000000     0.491420000000     0.452643   
Zn7      Zn     0.044180000000     0.043590000000     0.543680000000     0.451643   
Zn8      Zn     0.991640000000     0.991530000000     0.543700000000     0.453343   
Zn9      Zn     0.043760000000     0.491510000000     0.991530000000     0.452319   
Zn10     Zn     0.991700000000     0.491780000000     0.044100000000     0.452472   
Zn11     Zn     0.044280000000     0.543740000000     0.043860000000     0.451611   
Zn12     Zn     0.991730000000     0.543980000000     0.991760000000     0.453326   
Zn13     Zn     0.991750000000     0.491330000000     0.543940000000     0.452849   
Zn14     Zn     0.044040000000     0.491540000000     0.491680000000     0.451956   
Zn15     Zn     0.991530000000     0.543630000000     0.491730000000     0.452866   
Zn16     Zn     0.043860000000     0.543810000000     0.543940000000     0.452106   
Zn17     Zn     0.491630000000     0.991420000000     0.991240000000     0.453114   
Zn18     Zn     0.491890000000     0.043600000000     0.043560000000     0.452055   
Zn19     Zn     0.544090000000     0.991300000000     0.043430000000     0.452729   
Zn20     Zn     0.544090000000     0.043510000000     0.991140000000     0.452467   
Zn21     Zn     0.491640000000     0.043320000000     0.543430000000     0.452007   
Zn22     Zn     0.491740000000     0.991080000000     0.491200000000     0.452895   
Zn23     Zn     0.544020000000     0.043400000000     0.491210000000     0.452099   
Zn24     Zn     0.544100000000     0.991170000000     0.543450000000     0.452732   
Zn25     Zn     0.491650000000     0.543480000000     0.991430000000     0.452725   
Zn26     Zn     0.491750000000     0.491290000000     0.043730000000     0.452202   
Zn27     Zn     0.544100000000     0.491400000000     0.991450000000     0.452864   
Zn28     Zn     0.543970000000     0.543600000000     0.043760000000     0.452063   
Zn29     Zn     0.543910000000     0.491030000000     0.543690000000     0.452454   
Zn30     Zn     0.491560000000     0.491150000000     0.491520000000     0.452356   
Zn31     Zn     0.491710000000     0.543450000000     0.543710000000     0.452492   
Zn32     Zn     0.544010000000     0.543350000000     0.491520000000     0.452374   


