data_structure

_audit_creation_method RASPA-1.0
_audit_creation_date 2023-5-19
_audit_author_name 'Poobodin Mano'

_cell_length_a    43.2342
_cell_length_b    43.2312
_cell_length_c    43.223
_cell_angle_alpha 90
_cell_angle_beta  90
_cell_angle_gamma 90
_cell_volume      80786.7

_symmetry_cell_setting          triclinic
_symmetry_space_group_name_Hall 'P 1'
_symmetry_space_group_name_H-M  'P 1'
_symmetry_Int_Tables_number     1

_symmetry_equiv_pos_as_xyz 'x,y,z'

loop_
_atom_site_label
_atom_site_type_symbol
_atom_site_fract_x
_atom_site_fract_y
_atom_site_fract_z
_atom_site_charge
C1       C      0.997390000000     0.999830000000     0.085200000000     0.374217   
C2       C      0.082850000000     0.997970000000     0.998740000000     0.366564   
C3       C      0.996180000000     0.912330000000     0.000600000000     0.376812   
C4       C      0.996770000000     0.997230000000     0.913010000000     0.366143   
C5       C      0.996950000000     0.084600000000     0.998130000000     0.367354   
C6       C      0.910790000000     0.998950000000     0.999300000000     0.367068   
C7       C      0.997480000000     0.997980000000     0.413000000000     0.365904   
C8       C      0.083910000000     0.995570000000     0.499010000000     0.376702   
C9       C      0.998240000000     0.082020000000     0.501180000000     0.376168   
C10      C      0.997390000000     0.993740000000     0.585100000000     0.37501    
C11      C      0.997920000000     0.909680000000     0.496500000000     0.376639   
C12      C      0.911800000000     0.995990000000     0.499150000000     0.366684   
C13      C      0.997800000000     0.412380000000     0.995440000000     0.37619    
C14      C      0.998260000000     0.497810000000     0.081850000000     0.367241   
C15      C      0.084360000000     0.498320000000     0.995330000000     0.377355   
C16      C      0.998230000000     0.584570000000     0.996810000000     0.366196   
C17      C      0.911990000000     0.498890000000     0.995280000000     0.376786   
C18      C      0.998310000000     0.498900000000     0.909800000000     0.366948   
C19      C      0.997500000000     0.409810000000     0.497280000000     0.367049   
C20      C      0.998520000000     0.494460000000     0.409740000000     0.375666   
C21      C      0.912220000000     0.496390000000     0.496460000000     0.368348   
C22      C      0.998260000000     0.581890000000     0.494530000000     0.36758    
C23      C      0.084470000000     0.495280000000     0.495660000000     0.377443   
C24      C      0.999240000000     0.497370000000     0.581990000000     0.376518   
C25      C      0.410740000000     0.996500000000     0.999250000000     0.376067   
C26      C      0.496030000000     0.999870000000     0.086430000000     0.374915   
C27      C      0.499580000000     0.913040000000     0.001330000000     0.37788    
C28      C      0.582900000000     0.001510000000     0.000320000000     0.378367   
C29      C      0.494640000000     0.085190000000     0.000420000000     0.377635   
C30      C      0.497220000000     0.998600000000     0.914280000000     0.367785   
C31      C      0.411790000000     0.996360000000     0.501480000000     0.367805   
C32      C      0.497040000000     0.997850000000     0.414280000000     0.367511   
C33      C      0.496860000000     0.083160000000     0.501400000000     0.377145   
C34      C      0.583930000000     0.998230000000     0.499450000000     0.375795   
C35      C      0.498590000000     0.911040000000     0.499310000000     0.368948   
C36      C      0.499170000000     0.996040000000     0.586470000000     0.375996   
C37      C      0.412110000000     0.500120000000     0.998110000000     0.367864   
C38      C      0.497200000000     0.413080000000     0.998230000000     0.368253   
C39      C      0.497620000000     0.499170000000     0.911830000000     0.36847    
C40      C      0.584250000000     0.497850000000     0.997310000000     0.368159   
C41      C      0.498470000000     0.499310000000     0.084050000000     0.377825   
C42      C      0.499430000000     0.585140000000     0.998250000000     0.367571   
C43      C      0.412190000000     0.497050000000     0.498980000000     0.368612   
C44      C      0.498160000000     0.411040000000     0.498980000000     0.368403   
C45      C      0.497150000000     0.496060000000     0.411810000000     0.368713   
C46      C      0.584410000000     0.496380000000     0.497030000000     0.377135   
C47      C      0.499000000000     0.498910000000     0.583950000000     0.377272   
C48      C      0.498620000000     0.583150000000     0.496210000000     0.37719    
C49      C      0.517160000000     0.520160000000     0.664680000000    -0.162787   
C50      C      0.478910000000     0.519380000000     0.864030000000     0.071085   
C51      C      0.515980000000     0.478970000000     0.863920000000     0.071088   
C52      C      0.478620000000     0.519770000000     0.831720000000    -0.0898418  
C53      C      0.497600000000     0.471370000000     0.764120000000    -0.0374681  
C54      C      0.497770000000     0.471450000000     0.731790000000    -0.0284324  
C55      C      0.497410000000     0.499320000000     0.780730000000    -0.00304902 
C56      C      0.516150000000     0.478650000000     0.831610000000    -0.089798   
C57      C      0.497880000000     0.499490000000     0.715330000000    -0.017807   
C58      C      0.479750000000     0.479110000000     0.664160000000    -0.109594   
C59      C      0.497690000000     0.527460000000     0.731940000000    -0.0283666  
C60      C      0.480380000000     0.479490000000     0.631890000000     0.0810771  
C61      C      0.517360000000     0.520130000000     0.632270000000     0.241573   
C62      C      0.497390000000     0.527370000000     0.764270000000    -0.0374467  
C63      C      0.497370000000     0.499230000000     0.815100000000     0.0486351  
C64      C      0.498270000000     0.499580000000     0.680970000000     0.0812265  
C65      C      0.518480000000     0.517010000000     0.165170000000    -0.163062   
C66      C      0.476870000000     0.514570000000     0.363980000000     0.0712002  
C67      C      0.516770000000     0.476950000000     0.363950000000     0.0717105  
C68      C      0.476460000000     0.514770000000     0.331680000000    -0.0895475  
C69      C      0.469120000000     0.496530000000     0.264020000000    -0.0374993  
C70      C      0.469370000000     0.496940000000     0.231690000000    -0.0287731  
C71      C      0.497000000000     0.496010000000     0.280750000000    -0.00294301 
C72      C      0.517070000000     0.476690000000     0.331650000000    -0.0891997  
C73      C      0.497500000000     0.497030000000     0.215380000000    -0.0178618  
C74      C      0.477420000000     0.479610000000     0.163840000000    -0.109695   
C75      C      0.525370000000     0.496500000000     0.232120000000    -0.0283439  
C76      C      0.478150000000     0.480570000000     0.131580000000     0.0810872  
C77      C      0.518550000000     0.517800000000     0.132790000000     0.241683   
C78      C      0.525130000000     0.495920000000     0.264430000000    -0.037285   
C79      C      0.496790000000     0.495760000000     0.315110000000     0.0487667  
C80      C      0.497800000000     0.497870000000     0.181040000000     0.0812438  
C81      C      0.479320000000     0.664040000000     0.476840000000    -0.162683   
C82      C      0.518580000000     0.863120000000     0.517900000000     0.0718876  
C83      C      0.479220000000     0.863280000000     0.479710000000     0.0716011  
C84      C      0.519040000000     0.830810000000     0.517890000000    -0.0889655  
C85      C      0.527100000000     0.763380000000     0.499670000000    -0.0371925  
C86      C      0.527120000000     0.731060000000     0.499280000000    -0.028837   
C87      C      0.499150000000     0.779940000000     0.498150000000    -0.00286426 
C88      C      0.479060000000     0.830990000000     0.479150000000    -0.089403   
C89      C      0.499170000000     0.714530000000     0.497340000000    -0.0174847  
C90      C      0.518880000000     0.663160000000     0.515820000000    -0.109255   
C91      C      0.471220000000     0.731090000000     0.495930000000    -0.0284844  
C92      C      0.518320000000     0.630890000000     0.515070000000     0.080843   
C93      C      0.479340000000     0.631660000000     0.476360000000     0.241686   
C94      C      0.471210000000     0.763400000000     0.496340000000    -0.0370304  
C95      C      0.499100000000     0.814320000000     0.498400000000     0.0488745  
C96      C      0.499150000000     0.680160000000     0.496670000000     0.0810239  
C97      C      0.477830000000     0.163980000000     0.521380000000    -0.162631   
C98      C      0.516930000000     0.362970000000     0.479570000000     0.0709766  
C99      C      0.479140000000     0.363440000000     0.519300000000     0.0710743  
C100     C      0.517080000000     0.330670000000     0.479520000000    -0.0896201  
C101     C      0.525340000000     0.263210000000     0.497360000000    -0.0374491  
C102     C      0.525140000000     0.230890000000     0.497610000000    -0.0290397  
C103     C      0.497590000000     0.279950000000     0.500000000000    -0.00311103 
C104     C      0.478690000000     0.331150000000     0.519830000000    -0.0897062  
C105     C      0.497170000000     0.214540000000     0.500510000000    -0.0176265  
C106     C      0.515930000000     0.163240000000     0.480960000000    -0.109385   
C107     C      0.469420000000     0.231280000000     0.503090000000    -0.0285223  
C108     C      0.515430000000     0.130970000000     0.481650000000     0.0806884  
C109     C      0.477900000000     0.131590000000     0.521780000000     0.241252   
C110     C      0.469620000000     0.263600000000     0.502840000000    -0.0372062  
C111     C      0.497800000000     0.314330000000     0.499780000000     0.0485771  
C112     C      0.496970000000     0.180170000000     0.500930000000     0.0808291  
C113     C      0.520440000000     0.832460000000     0.020540000000    -0.162443   
C114     C      0.480460000000     0.633370000000     0.979410000000     0.0707566  
C115     C      0.519500000000     0.632590000000     0.017920000000     0.0710108  
C116     C      0.480480000000     0.665670000000     0.979460000000    -0.0895933  
C117     C      0.498540000000     0.733130000000     0.971920000000    -0.03702    
C118     C      0.498610000000     0.765450000000     0.972320000000    -0.0297199  
C119     C      0.500660000000     0.716240000000     0.999630000000    -0.00372275 
C120     C      0.520070000000     0.664890000000     0.018570000000    -0.0890383  
C121     C      0.500800000000     0.781650000000     0.000440000000    -0.0168399  
C122     C      0.480900000000     0.832730000000     0.981520000000    -0.109623   
C123     C      0.502990000000     0.764760000000     0.028150000000    -0.028938   
C124     C      0.481050000000     0.864990000000     0.982160000000     0.0806007  
C125     C      0.520300000000     0.864860000000     0.020620000000     0.24172    
C126     C      0.502920000000     0.732430000000     0.027750000000    -0.0364668  
C127     C      0.500410000000     0.681860000000     0.999210000000     0.048152   
C128     C      0.500710000000     0.816030000000     0.000850000000     0.0812252  
C129     C      0.474850000000     0.165990000000     0.019770000000    -0.161702   
C130     C      0.515860000000     0.364890000000     0.978970000000     0.0710616  
C131     C      0.477410000000     0.365590000000     0.018060000000     0.0715725  
C132     C      0.515760000000     0.332580000000     0.978860000000    -0.0896127  
C133     C      0.497310000000     0.265200000000     0.971260000000    -0.0373431  
C134     C      0.496940000000     0.232870000000     0.971510000000    -0.0284713  
C135     C      0.495660000000     0.281980000000     0.999070000000    -0.00326604 
C136     C      0.476740000000     0.333290000000     0.018560000000    -0.0891556  
C137     C      0.494900000000     0.216570000000     0.999590000000    -0.0178718  
C138     C      0.514030000000     0.165290000000     0.980390000000    -0.109125   
C139     C      0.493250000000     0.233360000000     0.027400000000    -0.0279817  
C140     C      0.513560000000     0.133030000000     0.981080000000     0.0803009  
C141     C      0.474900000000     0.133590000000     0.020120000000     0.240857   
C142     C      0.493630000000     0.265680000000     0.027140000000    -0.0370124  
C143     C      0.496050000000     0.316360000000     0.998820000000     0.0482573  
C144     C      0.494560000000     0.182200000000     0.999880000000     0.0804202  
C145     C      0.518550000000     0.976400000000     0.667320000000    -0.162751   
C146     C      0.515430000000     0.018960000000     0.866370000000     0.0727377  
C147     C      0.479480000000     0.977550000000     0.866500000000     0.0718732  
C148     C      0.515860000000     0.019040000000     0.834060000000    -0.0879666  
C149     C      0.497460000000     0.025300000000     0.766400000000    -0.0364968  
C150     C      0.497670000000     0.024960000000     0.734070000000    -0.0277856  
C151     C      0.498060000000     0.997470000000     0.783210000000    -0.00345137 
C152     C      0.479470000000     0.976910000000     0.834190000000    -0.0887378  
C153     C      0.498640000000     0.996800000000     0.717830000000    -0.018514   
C154     C      0.479810000000     0.016210000000     0.666550000000    -0.108584   
C155     C      0.499300000000     0.968980000000     0.734650000000    -0.0282181  
C156     C      0.480350000000     0.015540000000     0.634290000000     0.0813994  
C157     C      0.518890000000     0.976380000000     0.634920000000     0.241182   
C158     C      0.498940000000     0.969310000000     0.766980000000    -0.0371018  
C159     C      0.497790000000     0.997820000000     0.817570000000     0.0480763  
C160     C      0.498990000000     0.996460000000     0.683470000000     0.0802762  
C161     C      0.475190000000     0.017860000000     0.167290000000    -0.160755   
C162     C      0.516550000000     0.017100000000     0.366420000000     0.0724716  
C163     C      0.477140000000     0.978970000000     0.366430000000     0.0712886  
C164     C      0.516810000000     0.017420000000     0.334110000000    -0.0879578  
C165     C      0.524510000000     0.999110000000     0.266550000000    -0.0368337  
C166     C      0.524370000000     0.999270000000     0.234210000000    -0.030463   
C167     C      0.496590000000     0.998280000000     0.283190000000    -0.00299067 
C168     C      0.476710000000     0.978810000000     0.334120000000    -0.0892062  
C169     C      0.496310000000     0.998770000000     0.217800000000    -0.0165878  
C170     C      0.516930000000     0.981210000000     0.166510000000    -0.108136   
C171     C      0.468390000000     0.997950000000     0.234450000000    -0.0288795  
C172     C      0.516360000000     0.981870000000     0.134240000000     0.0800362  
C173     C      0.475280000000     0.018360000000     0.134900000000     0.240766   
C174     C      0.468520000000     0.997630000000     0.266780000000    -0.0370142  
C175     C      0.496720000000     0.998160000000     0.317560000000     0.0478886  
C176     C      0.496140000000     0.999260000000     0.183440000000     0.0792753  
C177     C      0.665210000000     0.477200000000     0.477130000000    -0.162754   
C178     C      0.864340000000     0.478760000000     0.517410000000     0.0710544  
C179     C      0.864410000000     0.514990000000     0.476230000000     0.0709519  
C180     C      0.832030000000     0.478840000000     0.517980000000    -0.0898523  
C181     C      0.764620000000     0.498070000000     0.525150000000    -0.0373274  
C182     C      0.732280000000     0.498080000000     0.525140000000    -0.0290591  
C183     C      0.781150000000     0.497440000000     0.497150000000    -0.0032845  
C184     C      0.832110000000     0.515500000000     0.476080000000    -0.0898093  
C185     C      0.715770000000     0.497270000000     0.497140000000    -0.0175802  
C186     C      0.664530000000     0.515910000000     0.516970000000    -0.109005   
C187     C      0.732310000000     0.496660000000     0.469140000000    -0.0287308  
C188     C      0.632250000000     0.515280000000     0.516450000000     0.081355   
C189     C      0.632830000000     0.476750000000     0.477280000000     0.24159    
C190     C      0.764630000000     0.496820000000     0.469140000000    -0.0373037  
C191     C      0.815510000000     0.497300000000     0.497110000000     0.0486303  
C192     C      0.681410000000     0.496820000000     0.497090000000     0.0810164  
C193     C      0.165570000000     0.474740000000     0.478480000000    -0.162726   
C194     C      0.364200000000     0.516720000000     0.480300000000     0.0717271  
C195     C      0.364510000000     0.477240000000     0.518370000000     0.071303   
C196     C      0.331910000000     0.516930000000     0.480160000000    -0.0891983  
C197     C      0.264380000000     0.524300000000     0.498570000000    -0.0373142  
C198     C      0.232060000000     0.524010000000     0.498160000000    -0.0286317  
C199     C      0.281150000000     0.496450000000     0.499330000000    -0.00294623 
C200     C      0.332200000000     0.476740000000     0.518690000000    -0.0896001  
C201     C      0.215780000000     0.495870000000     0.498330000000    -0.0176214  
C202     C      0.164250000000     0.516150000000     0.515490000000    -0.109438   
C203     C      0.232550000000     0.468020000000     0.499150000000    -0.0283538  
C204     C      0.132000000000     0.515530000000     0.514430000000     0.0811147  
C205     C      0.133190000000     0.474790000000     0.477560000000     0.242476   
C206     C      0.264860000000     0.468300000000     0.499730000000    -0.0371391  
C207     C      0.315500000000     0.496740000000     0.499450000000     0.0488483  
C208     C      0.181440000000     0.495560000000     0.497470000000     0.0814305  
C209     C      0.830980000000     0.516990000000     0.975190000000    -0.162752   
C210     C      0.632410000000     0.515940000000     0.017140000000     0.07188    
C211     C      0.631760000000     0.478590000000     0.976980000000     0.0712313  
C212     C      0.664710000000     0.515810000000     0.017310000000    -0.0886509  
C213     C      0.732070000000     0.496590000000     0.024310000000    -0.0371028  
C214     C      0.764390000000     0.496690000000     0.024020000000    -0.0284293  
C215     C      0.715290000000     0.496580000000     0.996450000000    -0.00337604 
C216     C      0.664070000000     0.478040000000     0.976420000000    -0.0895538  
C217     C      0.780660000000     0.496970000000     0.995860000000    -0.0182291  
C218     C      0.832100000000     0.478960000000     0.015670000000    -0.109163   
C219     C      0.763880000000     0.496900000000     0.968000000000    -0.0285028  
C220     C      0.864360000000     0.479850000000     0.015050000000     0.0810685  
C221     C      0.863360000000     0.517720000000     0.975240000000     0.241256   
C222     C      0.731560000000     0.496610000000     0.968290000000    -0.0373524  
C223     C      0.680940000000     0.496770000000     0.996760000000     0.048325   
C224     C      0.815000000000     0.497600000000     0.995550000000     0.0805479  
C225     C      0.165390000000     0.478780000000     0.976760000000    -0.161953   
C226     C      0.364340000000     0.520400000000     0.979420000000     0.0708178  
C227     C      0.364190000000     0.480270000000     0.016810000000     0.0713057  
C228     C      0.332030000000     0.520770000000     0.979090000000    -0.0896569  
C229     C      0.264310000000     0.527940000000     0.997400000000    -0.0374824  
C230     C      0.231980000000     0.527670000000     0.997090000000    -0.0291216  
C231     C      0.281060000000     0.500070000000     0.997580000000    -0.00316551 
C232     C      0.331890000000     0.479920000000     0.016910000000    -0.0892843  
C233     C      0.215690000000     0.499520000000     0.996750000000    -0.0174556  
C234     C      0.164230000000     0.519220000000     0.014830000000    -0.108864   
C235     C      0.232450000000     0.471660000000     0.996890000000    -0.0285758  
C236     C      0.131970000000     0.518420000000     0.014100000000     0.081496   
C237     C      0.133010000000     0.478650000000     0.976190000000     0.241684   
C238     C      0.264760000000     0.471930000000     0.997380000000    -0.0371024  
C239     C      0.315410000000     0.500300000000     0.997900000000     0.0481919  
C240     C      0.181350000000     0.499190000000     0.996120000000     0.0805737  
C241     C      0.018150000000     0.518180000000     0.662640000000    -0.161678   
C242     C      0.016730000000     0.478560000000     0.861970000000     0.0713665  
C243     C      0.979800000000     0.519100000000     0.861930000000     0.0712586  
C244     C      0.016860000000     0.478070000000     0.829670000000    -0.0884425  
C245     C      0.997850000000     0.470430000000     0.762310000000    -0.0375383  
C246     C      0.997900000000     0.470310000000     0.729970000000    -0.0289504  
C247     C      0.998060000000     0.498500000000     0.778730000000    -0.00278034 
C248     C      0.979500000000     0.519340000000     0.829610000000    -0.0888415  
C249     C      0.998340000000     0.498240000000     0.713350000000    -0.0175284  
C250     C      0.979900000000     0.477910000000     0.662270000000    -0.10939    
C251     C      0.998540000000     0.526310000000     0.729770000000    -0.0286004  
C252     C      0.980540000000     0.478170000000     0.629990000000     0.0809179  
C253     C      0.018620000000     0.517780000000     0.630250000000     0.242361   
C254     C      0.998320000000     0.526440000000     0.762100000000    -0.0373143  
C255     C      0.998120000000     0.498630000000     0.813090000000     0.0476368  
C256     C      0.998770000000     0.498120000000     0.678990000000     0.0802227  
C257     C      0.018680000000     0.475770000000     0.328860000000    -0.161759   
C258     C      0.018510000000     0.515910000000     0.129860000000     0.0719059  
C259     C      0.978020000000     0.478940000000     0.129560000000     0.070998   
C260     C      0.018870000000     0.515870000000     0.162170000000    -0.0887747  
C261     C      0.026320000000     0.496320000000     0.229440000000    -0.0363397  
C262     C      0.026370000000     0.495790000000     0.261770000000    -0.0277664  
C263     C      0.998300000000     0.496700000000     0.212950000000    -0.00391272 
C264     C      0.977650000000     0.478460000000     0.161870000000    -0.0895743  
C265     C      0.998390000000     0.495810000000     0.278350000000    -0.0184174  
C266     C      0.978330000000     0.513930000000     0.329660000000    -0.109405   
C267     C      0.970370000000     0.496340000000     0.261870000000    -0.028993   
C268     C      0.978840000000     0.513190000000     0.361940000000     0.0804532  
C269     C      0.018520000000     0.475200000000     0.361250000000     0.241674   
C270     C      0.970320000000     0.496690000000     0.229530000000    -0.0374522  
C271     C      0.998260000000     0.497030000000     0.178590000000     0.0478656  
C272     C      0.998460000000     0.495180000000     0.312720000000     0.0800505  
C273     C      0.017860000000     0.829200000000     0.476060000000    -0.161075   
C274     C      0.977910000000     0.629630000000     0.475790000000     0.0712472  
C275     C      0.018130000000     0.629840000000     0.513070000000     0.0725209  
C276     C      0.977340000000     0.661950000000     0.475630000000    -0.0894503  
C277     C      0.969580000000     0.729440000000     0.494710000000    -0.0371318  
C278     C      0.969540000000     0.761770000000     0.495010000000    -0.0287594  
C279     C      0.997610000000     0.712950000000     0.494580000000    -0.00367641 
C280     C      0.018290000000     0.662140000000     0.513350000000    -0.0882184  
C281     C      0.997520000000     0.778330000000     0.494960000000    -0.0180262  
C282     C      0.977390000000     0.829260000000     0.514110000000    -0.108539   
C283     C      0.025540000000     0.761830000000     0.494740000000    -0.0274323  
C284     C      0.978010000000     0.861540000000     0.514120000000     0.0816059  
C285     C      0.017820000000     0.861580000000     0.476230000000     0.242598   
C286     C      0.025580000000     0.729520000000     0.494630000000    -0.0360643  
C287     C      0.997720000000     0.678600000000     0.494520000000     0.0481521  
C288     C      0.997550000000     0.812690000000     0.495040000000     0.0804811  
C289     C      0.018280000000     0.162810000000     0.520370000000    -0.161773   
C290     C      0.977350000000     0.362330000000     0.516860000000     0.0707084  
C291     C      0.017170000000     0.361590000000     0.479150000000     0.0718253  
C292     C      0.976960000000     0.330030000000     0.517680000000    -0.0895017  
C293     C      0.969430000000     0.262130000000     0.500220000000    -0.0376543  
C294     C      0.969560000000     0.229800000000     0.500690000000    -0.0289497  
C295     C      0.997360000000     0.278750000000     0.499690000000    -0.00371939 
C296     C      0.017500000000     0.329290000000     0.479540000000    -0.0880686  
C297     C      0.997630000000     0.213380000000     0.500840000000    -0.0185683  
C298     C      0.977520000000     0.162150000000     0.482630000000    -0.109482   
C299     C      0.025560000000     0.230010000000     0.500460000000    -0.0275837  
C300     C      0.978180000000     0.129890000000     0.483080000000     0.0805114  
C301     C      0.018260000000     0.130410000000     0.520670000000     0.241683   
C302     C      0.025430000000     0.262330000000     0.499800000000    -0.0364908  
C303     C      0.997250000000     0.313110000000     0.498950000000     0.0476929  
C304     C      0.997790000000     0.179020000000     0.501310000000     0.0800429  
C305     C      0.664720000000     0.018350000000     0.480450000000    -0.16174    
C306     C      0.863920000000     0.976240000000     0.518080000000     0.0701529  
C307     C      0.864010000000     0.016250000000     0.480580000000     0.0713361  
C308     C      0.831610000000     0.976150000000     0.518510000000    -0.0895012  
C309     C      0.763900000000     0.969120000000     0.500960000000    -0.0374652  
C310     C      0.731570000000     0.969440000000     0.500970000000    -0.0284881  
C311     C      0.780720000000     0.996930000000     0.499790000000    -0.00383684 
C312     C      0.831720000000     0.016800000000     0.480470000000    -0.0887616  
C313     C      0.715310000000     0.997590000000     0.499810000000    -0.0185471  
C314     C      0.664040000000     0.977960000000     0.518580000000    -0.109327   
C315     C      0.732140000000     0.025400000000     0.498740000000    -0.0276835  
C316     C      0.631780000000     0.978620000000     0.518100000000     0.0803123  
C317     C      0.632340000000     0.018670000000     0.480480000000     0.241673   
C318     C      0.764450000000     0.025070000000     0.498730000000    -0.0367668  
C319     C      0.815090000000     0.996610000000     0.499590000000     0.047391   
C320     C      0.680940000000     0.997950000000     0.499610000000     0.0799914  
C321     C      0.164980000000     0.976830000000     0.479840000000    -0.161495   
C322     C      0.364020000000     0.014970000000     0.521810000000     0.0725458  
C323     C      0.363890000000     0.977180000000     0.482070000000     0.0714176  
C324     C      0.331710000000     0.015130000000     0.522340000000    -0.0877545  
C325     C      0.264040000000     0.023610000000     0.505270000000    -0.0361042  
C326     C      0.231710000000     0.023540000000     0.504950000000    -0.0277683  
C327     C      0.280680000000     0.995800000000     0.502390000000    -0.00350534 
C328     C      0.331590000000     0.976760000000     0.482010000000    -0.0891244  
C329     C      0.215270000000     0.995670000000     0.501710000000    -0.017746   
C330     C      0.163730000000     0.014360000000     0.520770000000    -0.107282   
C331     C      0.231900000000     0.967850000000     0.499040000000    -0.0283451  
C332     C      0.131470000000     0.013930000000     0.519630000000     0.0827659  
C333     C      0.132610000000     0.976970000000     0.478970000000     0.242045   
C334     C      0.264210000000     0.967920000000     0.499390000000    -0.0367792  
C335     C      0.315070000000     0.995880000000     0.502280000000     0.0480526  
C336     C      0.180900000000     0.995610000000     0.500810000000     0.0804788  
C337     C      0.976250000000     0.831450000000     0.019560000000    -0.16282    
C338     C      0.017970000000     0.632230000000     0.016300000000     0.0716249  
C339     C      0.977980000000     0.632590000000     0.978780000000     0.0703588  
C340     C      0.018140000000     0.664530000000     0.017030000000    -0.0883746  
C341     C      0.025300000000     0.732340000000     0.999200000000    -0.0367526  
C342     C      0.025050000000     0.764670000000     0.999580000000    -0.0286367  
C343     C      0.997420000000     0.715610000000     0.998890000000    -0.00386857 
C344     C      0.977420000000     0.664880000000     0.979070000000    -0.0894941  
C345     C      0.996920000000     0.780980000000     0.999850000000    -0.0190878  
C346     C      0.016780000000     0.832270000000     0.981570000000    -0.109403   
C347     C      0.969050000000     0.764240000000     0.999650000000    -0.0283731  
C348     C      0.016090000000     0.864540000000     0.982130000000     0.0812443  
C349     C      0.976250000000     0.863850000000     0.019970000000     0.241066   
C350     C      0.969290000000     0.731920000000     0.999080000000    -0.0374911  
C351     C      0.997670000000     0.681260000000     0.998330000000     0.0470915  
C352     C      0.996660000000     0.815330000000     0.000330000000     0.0810945  
C353     C      0.017580000000     0.331330000000     0.977250000000    -0.161072   
C354     C      0.976730000000     0.132380000000     0.979370000000     0.0709685  
C355     C      0.016860000000     0.132520000000     0.016760000000     0.0726881  
C356     C      0.976260000000     0.164690000000     0.979150000000    -0.0893694  
C357     C      0.968750000000     0.232290000000     0.997730000000    -0.0373243  
C358     C      0.968860000000     0.264630000000     0.997520000000    -0.0290276  
C359     C      0.996700000000     0.215670000000     0.997910000000    -0.00360969 
C360     C      0.017100000000     0.164820000000     0.016980000000    -0.0875951  
C361     C      0.996930000000     0.281040000000     0.997280000000    -0.0180883  
C362     C      0.976920000000     0.332510000000     0.015080000000    -0.108559   
C363     C      0.024870000000     0.264410000000     0.997500000000    -0.027656   
C364     C      0.977640000000     0.364790000000     0.014240000000     0.0812749  
C365     C      0.017630000000     0.363700000000     0.976560000000     0.242191   
C366     C      0.024760000000     0.232090000000     0.997890000000    -0.0363008  
C367     C      0.996640000000     0.181310000000     0.998050000000     0.0475209  
C368     C      0.997130000000     0.315390000000     0.996560000000     0.0798291  
C369     C      0.663610000000     0.021140000000     0.980500000000    -0.163209   
C370     C      0.862890000000     0.980280000000     0.019250000000     0.0718782  
C371     C      0.863010000000     0.018230000000     0.979670000000     0.0719855  
C372     C      0.830590000000     0.980240000000     0.019690000000    -0.0884828  
C373     C      0.763040000000     0.001750000000     0.971930000000    -0.035208   
C374     C      0.730720000000     0.002170000000     0.972070000000    -0.0300334  
C375     C      0.779680000000     0.999930000000     0.999820000000    -0.00489487 
C376     C      0.830720000000     0.018760000000     0.979500000000    -0.0884969  
C377     C      0.714270000000     0.000760000000     0.000090000000    -0.0155336  
C378     C      0.663080000000     0.982060000000     0.019980000000    -0.110292   
C379     C      0.730900000000     0.998860000000     0.027970000000    -0.0308889  
C380     C      0.630810000000     0.982710000000     0.019610000000     0.079983   
C381     C      0.631230000000     0.021540000000     0.980730000000     0.241263   
C382     C      0.763230000000     0.998460000000     0.027840000000    -0.0358544  
C383     C      0.814070000000     0.999630000000     0.999670000000     0.0476793  
C384     C      0.679900000000     0.001320000000     0.000210000000     0.0819121  
C385     C      0.330210000000     0.975890000000     0.979610000000    -0.161831   
C386     C      0.130870000000     0.017430000000     0.017590000000     0.0717566  
C387     C      0.130500000000     0.977850000000     0.979640000000     0.0705155  
C388     C      0.163170000000     0.017490000000     0.017820000000    -0.0879495  
C389     C      0.230710000000     0.024780000000     0.999930000000    -0.0366102  
C390     C      0.263030000000     0.024510000000     0.999970000000    -0.0277676  
C391     C      0.213940000000     0.996960000000     0.998540000000    -0.00338295 
C392     C      0.162800000000     0.977280000000     0.979330000000    -0.0892222  
C393     C      0.279350000000     0.996410000000     0.998640000000    -0.0176341  
C394     C      0.330380000000     0.016080000000     0.017970000000    -0.106436   
C395     C      0.262570000000     0.968580000000     0.997230000000    -0.0283313  
C396     C      0.362640000000     0.015610000000     0.017730000000     0.0833251  
C397     C      0.362600000000     0.975760000000     0.979900000000     0.241722   
C398     C      0.230250000000     0.968850000000     0.997180000000    -0.0373203  
C399     C      0.179560000000     0.997250000000     0.998550000000     0.0471063  
C400     C      0.313730000000     0.996130000000     0.998740000000     0.0798907  
C401     C      0.978460000000     0.973410000000     0.665900000000    -0.162102   
C402     C      0.978390000000     0.016740000000     0.864800000000     0.0714177  
C403     C      0.015480000000     0.976360000000     0.865510000000     0.071573   
C404     C      0.978300000000     0.016640000000     0.832480000000    -0.0883556  
C405     C      0.997380000000     0.023140000000     0.764980000000    -0.0367377  
C406     C      0.997560000000     0.022670000000     0.732640000000    -0.0282422  
C407     C      0.997290000000     0.995370000000     0.781910000000    -0.00368243 
C408     C      0.015840000000     0.975550000000     0.833210000000    -0.0883433  
C409     C      0.997500000000     0.994440000000     0.716510000000    -0.0182207  
C410     C      0.016240000000     0.014120000000     0.665280000000    -0.107213   
C411     C      0.997370000000     0.966680000000     0.733440000000    -0.028561   
C412     C      0.015840000000     0.013440000000     0.633000000000     0.0820575  
C413     C      0.978220000000     0.973390000000     0.633500000000     0.241065   
C414     C      0.997350000000     0.967140000000     0.765780000000    -0.037313   
C415     C      0.997140000000     0.995860000000     0.816280000000     0.0466907  
C416     C      0.997440000000     0.993960000000     0.682140000000     0.0790134  
C417     C      0.015920000000     0.020310000000     0.166030000000    -0.162468   
C418     C      0.015830000000     0.978610000000     0.364750000000     0.0708631  
C419     C      0.978410000000     0.018690000000     0.365550000000     0.0712884  
C420     C      0.015710000000     0.978570000000     0.332450000000    -0.0882345  
C421     C      0.996140000000     0.971480000000     0.265210000000    -0.0380719  
C422     C      0.996040000000     0.971710000000     0.232890000000    -0.0281615  
C423     C      0.996240000000     0.999370000000     0.281940000000    -0.00343312 
C424     C      0.977860000000     0.019380000000     0.333240000000    -0.0883792  
C425     C      0.996220000000     0.999820000000     0.216560000000    -0.0203452  
C426     C      0.977810000000     0.979900000000     0.165310000000    -0.11103    
C427     C      0.996260000000     0.027720000000     0.233290000000    -0.0270055  
C428     C      0.978520000000     0.980380000000     0.133030000000     0.0801122  
C429     C      0.016470000000     0.020110000000     0.133640000000     0.242432   
C430     C      0.996180000000     0.027490000000     0.265620000000    -0.0369268  
C431     C      0.996590000000     0.999100000000     0.316290000000     0.0464525  
C432     C      0.996600000000     0.000050000000     0.182210000000     0.0827388  
H1       H      0.530990000000     0.462710000000     0.875710000000     0.0306938  
H2       H      0.465530000000     0.463100000000     0.620050000000     0.028671   
H3       H      0.497530000000     0.549300000000     0.776390000000     0.0404814  
H4       H      0.498180000000     0.449520000000     0.719670000000     0.0380445  
H5       H      0.464500000000     0.463020000000     0.675860000000     0.0591045  
H6       H      0.497330000000     0.449370000000     0.776120000000     0.0403563  
H7       H      0.532080000000     0.536140000000     0.676950000000     0.0826851  
H8       H      0.531280000000     0.462640000000     0.819670000000     0.0543862  
H9       H      0.463480000000     0.535820000000     0.819860000000     0.0543048  
H10      H      0.497480000000     0.549450000000     0.719930000000     0.0379625  
H11      H      0.463950000000     0.535620000000     0.875930000000     0.0306558  
H12      H      0.523750000000     0.559820000000     0.614880000000     0.155876   
H13      H      0.532850000000     0.461760000000     0.375780000000     0.0337514  
H14      H      0.461980000000     0.465760000000     0.119410000000     0.0286543  
H15      H      0.547000000000     0.495820000000     0.276660000000     0.0413062  
H16      H      0.447510000000     0.497610000000     0.219460000000     0.0376656  
H17      H      0.461240000000     0.464230000000     0.175220000000     0.0593529  
H18      H      0.447080000000     0.496330000000     0.275930000000     0.0406069  
H19      H      0.534320000000     0.531790000000     0.177770000000     0.0824938  
H20      H      0.532910000000     0.461360000000     0.319730000000     0.0553529  
H21      H      0.460630000000     0.530120000000     0.319780000000     0.0546413  
H22      H      0.547420000000     0.496260000000     0.220220000000     0.0400962  
H23      H      0.460860000000     0.529800000000     0.375850000000     0.0316386  
H24      H      0.528340000000     0.557230000000     0.116420000000     0.156089   
H25      H      0.463360000000     0.875190000000     0.464360000000     0.031057   
H26      H      0.533920000000     0.618890000000     0.530620000000     0.0295213  
H27      H      0.449240000000     0.775430000000     0.495660000000     0.040968   
H28      H      0.549070000000     0.719010000000     0.499950000000     0.0378402  
H29      H      0.534390000000     0.674690000000     0.531770000000     0.0593428  
H30      H      0.549050000000     0.775420000000     0.500640000000     0.0405514  
H31      H      0.464050000000     0.676430000000     0.461290000000     0.0823244  
H32      H      0.463550000000     0.819190000000     0.463400000000     0.0544963  
H33      H      0.534650000000     0.818870000000     0.533430000000     0.0551451  
H34      H      0.449270000000     0.719060000000     0.494940000000     0.0400885  
H35      H      0.534330000000     0.874900000000     0.533460000000     0.0337006  
H36      H      0.471300000000     0.614860000000     0.436710000000     0.156217   
H37      H      0.464020000000     0.375480000000     0.535290000000     0.0307077  
H38      H      0.530490000000     0.119040000000     0.465510000000     0.0293045  
H39      H      0.447780000000     0.275780000000     0.504410000000     0.0407501  
H40      H      0.546970000000     0.218700000000     0.496050000000     0.037212   
H41      H      0.530840000000     0.174810000000     0.464480000000     0.0591634  
H42      H      0.547330000000     0.275090000000     0.495610000000     0.0400156  
H43      H      0.463140000000     0.176320000000     0.537510000000     0.0820465  
H44      H      0.463710000000     0.319470000000     0.536170000000     0.054175   
H45      H      0.531950000000     0.318600000000     0.463360000000     0.0543219  
H46      H      0.447430000000     0.219400000000     0.504870000000     0.0400516  
H47      H      0.532160000000     0.374620000000     0.463400000000     0.0313645  
H48      H      0.471230000000     0.114730000000     0.561650000000     0.155387   
H49      H      0.535180000000     0.620430000000     0.033260000000     0.0314176  
H50      H      0.465060000000     0.876710000000     0.966800000000     0.0294945  
H51      H      0.504110000000     0.720120000000     0.049540000000     0.0405335  
H52      H      0.497400000000     0.777750000000     0.950520000000     0.0377923  
H53      H      0.464940000000     0.820970000000     0.966190000000     0.0591431  
H54      H      0.497260000000     0.721370000000     0.949830000000     0.040148   
H55      H      0.536410000000     0.820310000000     0.035560000000     0.0823086  
H56      H      0.536150000000     0.676450000000     0.033930000000     0.0544108  
H57      H      0.464600000000     0.677850000000     0.964370000000     0.0539239  
H58      H      0.504230000000     0.776520000000     0.050240000000     0.0401315  
H59      H      0.464550000000     0.621840000000     0.963830000000     0.0305831  
H60      H      0.559710000000     0.882370000000     0.028280000000     0.156376   
H61      H      0.461980000000     0.377710000000     0.033680000000     0.0309488  
H62      H      0.529190000000     0.121120000000     0.965490000000     0.0293738  
H63      H      0.492820000000     0.277890000000     0.049000000000     0.040528   
H64      H      0.497780000000     0.220650000000     0.949660000000     0.0382979  
H65      H      0.529940000000     0.176880000000     0.964890000000     0.0588783  
H66      H      0.498420000000     0.277050000000     0.949210000000     0.0403891  
H67      H      0.459150000000     0.178310000000     0.034930000000     0.082703   
H68      H      0.460850000000     0.321710000000     0.034080000000     0.0545393  
H69      H      0.531360000000     0.320430000000     0.963480000000     0.0540187  
H70      H      0.492160000000     0.221510000000     0.049450000000     0.0377943  
H71      H      0.531570000000     0.376460000000     0.963200000000     0.0307122  
H72      H      0.466800000000     0.116640000000     0.059700000000     0.154788   
H73      H      0.464880000000     0.960990000000     0.878400000000     0.0338118  
H74      H      0.464850000000     0.031240000000     0.622350000000     0.0294652  
H75      H      0.499700000000     0.947490000000     0.779270000000     0.041089   
H76      H      0.497430000000     0.046800000000     0.721780000000     0.0375091  
H77      H      0.464060000000     0.031870000000     0.678140000000     0.0596624  
H78      H      0.496490000000     0.047360000000     0.778220000000     0.040813   
H79      H      0.534010000000     0.961040000000     0.679690000000     0.0823445  
H80      H      0.464870000000     0.960350000000     0.822340000000     0.0554988  
H81      H      0.530630000000     0.035380000000     0.822110000000     0.0551177  
H82      H      0.499760000000     0.946900000000     0.722810000000     0.0401865  
H83      H      0.529900000000     0.035710000000     0.878170000000     0.0336475  
H84      H      0.558380000000     0.967870000000     0.617980000000     0.155609   
H85      H      0.461330000000     0.963520000000     0.378280000000     0.0311277  
H86      H      0.532870000000     0.967250000000     0.122280000000     0.0315869  
H87      H      0.446620000000     0.997270000000     0.278930000000     0.0409689  
H88      H      0.546260000000     0.000180000000     0.222060000000     0.039068   
H89      H      0.533330000000     0.966240000000     0.178110000000     0.0598494  
H90      H      0.546520000000     0.999330000000     0.278520000000     0.0406521  
H91      H      0.459010000000     0.032460000000     0.179670000000     0.0825314  
H92      H      0.461030000000     0.963300000000     0.322220000000     0.054716   
H93      H      0.532410000000     0.033000000000     0.322210000000     0.0553351  
H94      H      0.446390000000     0.997260000000     0.222480000000     0.0404079  
H95      H      0.532430000000     0.032480000000     0.378270000000     0.0338703  
H96      H      0.464880000000     0.057460000000     0.118110000000     0.155694   
H97      H      0.876280000000     0.529530000000     0.459600000000     0.0306348  
H98      H      0.620340000000     0.530740000000     0.532210000000     0.0314844  
H99      H      0.776690000000     0.496040000000     0.447190000000     0.040464   
H100     H      0.720210000000     0.498300000000     0.547090000000     0.0382065  
H101     H      0.676170000000     0.531670000000     0.532580000000     0.0601154  
H102     H      0.776680000000     0.498850000000     0.547100000000     0.0405597  
H103     H      0.677540000000     0.461760000000     0.461700000000     0.0822003  
H104     H      0.820240000000     0.530380000000     0.459780000000     0.0543191  
H105     H      0.820100000000     0.464150000000     0.534390000000     0.0542949  
H106     H      0.720260000000     0.496320000000     0.447170000000     0.0398675  
H107     H      0.876160000000     0.464010000000     0.533890000000     0.0306846  
H108     H      0.616000000000     0.437200000000     0.468850000000     0.156386   
H109     H      0.376480000000     0.461410000000     0.533700000000     0.0307802  
H110     H      0.119840000000     0.531880000000     0.529050000000     0.029456   
H111     H      0.277120000000     0.446450000000     0.500040000000     0.04095    
H112     H      0.219820000000     0.545850000000     0.497260000000     0.038161   
H113     H      0.175620000000     0.532450000000     0.530760000000     0.0596201  
H114     H      0.276250000000     0.546360000000     0.498530000000     0.0411276  
H115     H      0.178160000000     0.458720000000     0.463890000000     0.0833176  
H116     H      0.320400000000     0.461000000000     0.534210000000     0.0545706  
H117     H      0.319900000000     0.532530000000     0.464660000000     0.0553948  
H118     H      0.220670000000     0.445960000000     0.499600000000     0.0402255  
H119     H      0.375920000000     0.532640000000     0.464860000000     0.0337893  
H120     H      0.116920000000     0.464680000000     0.438170000000     0.161581   
H121     H      0.619660000000     0.463640000000     0.960890000000     0.0307884  
H122     H      0.876440000000     0.464760000000     0.031040000000     0.0284082  
H123     H      0.719290000000     0.496880000000     0.946450000000     0.0408086  
H124     H      0.776660000000     0.497000000000     0.045870000000     0.0375786  
H125     H      0.820630000000     0.463380000000     0.031610000000     0.0590193  
H126     H      0.720200000000     0.496270000000     0.046380000000     0.0408847  
H127     H      0.818460000000     0.532040000000     0.959530000000     0.0823685  
H128     H      0.675720000000     0.462720000000     0.960380000000     0.0544324  
H129     H      0.676860000000     0.530930000000     0.033180000000     0.0551971  
H130     H      0.775750000000     0.496820000000     0.945930000000     0.0399541  
H131     H      0.620830000000     0.531160000000     0.033370000000     0.0338221  
H132     H      0.879830000000     0.557250000000     0.966060000000     0.156063   
H133     H      0.375970000000     0.464120000000     0.031950000000     0.030845   
H134     H      0.119870000000     0.534320000000     0.029260000000     0.0286257  
H135     H      0.277010000000     0.450070000000     0.997230000000     0.0410456  
H136     H      0.219720000000     0.549520000000     0.996730000000     0.0373996  
H137     H      0.175680000000     0.535190000000     0.030380000000     0.0592125  
H138     H      0.276200000000     0.549990000000     0.997810000000     0.040143   
H139     H      0.177930000000     0.463190000000     0.961650000000     0.0831563  
H140     H      0.319940000000     0.463960000000     0.032090000000     0.0546609  
H141     H      0.320170000000     0.536690000000     0.963800000000     0.054255   
H142     H      0.220570000000     0.449600000000     0.996920000000     0.0408383  
H143     H      0.376250000000     0.536520000000     0.964350000000     0.0306453  
H144     H      0.116390000000     0.469400000000     0.936730000000     0.156794   
H145     H      0.964910000000     0.535450000000     0.873760000000     0.033638   
H146     H      0.965270000000     0.462140000000     0.618200000000     0.028635   
H147     H      0.998760000000     0.548440000000     0.774080000000     0.0409472  
H148     H      0.998010000000     0.448300000000     0.717990000000     0.0376109  
H149     H      0.964320000000     0.462200000000     0.674020000000     0.0592075  
H150     H      0.997350000000     0.448520000000     0.774460000000     0.0404123  
H151     H      0.033390000000     0.533890000000     0.674870000000     0.0826354  
H152     H      0.964410000000     0.535400000000     0.817680000000     0.0553119  
H153     H      0.031890000000     0.461930000000     0.817780000000     0.0547262  
H154     H      0.998590000000     0.548220000000     0.717620000000     0.0401088  
H155     H      0.031680000000     0.462290000000     0.873840000000     0.0319583  
H156     H      0.058070000000     0.526540000000     0.613350000000     0.156672   
H157     H      0.961730000000     0.464090000000     0.117590000000     0.0308089  
H158     H      0.962870000000     0.528390000000     0.373910000000     0.0285578  
H159     H      0.948350000000     0.497270000000     0.217500000000     0.0401029  
H160     H      0.048340000000     0.495670000000     0.273800000000     0.0401129  
H161     H      0.962500000000     0.529530000000     0.318080000000     0.0589501  
H162     H      0.048260000000     0.496030000000     0.217340000000     0.0410113  
H163     H      0.034340000000     0.460620000000     0.316460000000     0.0825551  
H164     H      0.961560000000     0.463290000000     0.173650000000     0.0542815  
H165     H      0.034960000000     0.530840000000     0.174200000000     0.054547   
H166     H      0.948430000000     0.496100000000     0.273970000000     0.0373886  
H167     H      0.034810000000     0.530940000000     0.118130000000     0.0309594  
H168     H      0.027520000000     0.435730000000     0.377980000000     0.157253   
H169     H      0.034380000000     0.618100000000     0.528140000000     0.0338974  
H170     H      0.962040000000     0.873220000000     0.529540000000     0.0315028  
H171     H      0.047560000000     0.717500000000     0.494250000000     0.0413024  
H172     H      0.947570000000     0.773830000000     0.494900000000     0.0377372  
H173     H      0.961490000000     0.817360000000     0.529390000000     0.0602771  
H174     H      0.947650000000     0.717330000000     0.494960000000     0.0406234  
H175     H      0.033530000000     0.817100000000     0.460670000000     0.0831111  
H176     H      0.034190000000     0.674100000000     0.528570000000     0.0558229  
H177     H      0.961300000000     0.673790000000     0.460460000000     0.0543317  
H178     H      0.047490000000     0.773920000000     0.494990000000     0.041133   
H179     H      0.961810000000     0.617690000000     0.460720000000     0.0308036  
H180     H      0.026970000000     0.879150000000     0.437160000000     0.15673    
H181     H      0.033210000000     0.373120000000     0.463700000000     0.0344081  
H182     H      0.962100000000     0.118000000000     0.467950000000     0.0284882  
H183     H      0.047340000000     0.274480000000     0.499690000000     0.0415763  
H184     H      0.947650000000     0.217640000000     0.501250000000     0.0371752  
H185     H      0.961490000000     0.173790000000     0.467280000000     0.0589632  
H186     H      0.947430000000     0.274110000000     0.499880000000     0.0400609  
H187     H      0.034060000000     0.175150000000     0.535440000000     0.0823092  
H188     H      0.033320000000     0.317090000000     0.464410000000     0.055547   
H189     H      0.961140000000     0.318420000000     0.533260000000     0.0540018  
H190     H      0.047560000000     0.218030000000     0.500290000000     0.0403118  
H191     H      0.961350000000     0.374490000000     0.531870000000     0.0305925  
H192     H      0.027720000000     0.113380000000     0.559910000000     0.156055   
H193     H      0.875890000000     0.032240000000     0.465340000000     0.0305202  
H194     H      0.619870000000     0.962610000000     0.533310000000     0.0291402  
H195     H      0.776700000000     0.046920000000     0.498320000000     0.0399272  
H196     H      0.719310000000     0.947600000000     0.501360000000     0.0381317  
H197     H      0.675650000000     0.962050000000     0.534070000000     0.0588189  
H198     H      0.775710000000     0.947030000000     0.501340000000     0.0403696  
H199     H      0.677030000000     0.033930000000     0.465140000000     0.0821946  
H200     H      0.819890000000     0.032720000000     0.465160000000     0.0540243  
H201     H      0.819700000000     0.960400000000     0.533930000000     0.0539371  
H202     H      0.720330000000     0.047490000000     0.498340000000     0.0373501  
H203     H      0.875730000000     0.960080000000     0.533200000000     0.0310847  
H204     H      0.615340000000     0.058410000000     0.473430000000     0.155267   
H205     H      0.375670000000     0.962070000000     0.465890000000     0.0310887  
H206     H      0.119320000000     0.028770000000     0.535790000000     0.0319292  
H207     H      0.276290000000     0.946040000000     0.497660000000     0.0411007  
H208     H      0.219600000000     0.045410000000     0.506620000000     0.0386482  
H209     H      0.175110000000     0.029040000000     0.537600000000     0.0603294  
H210     H      0.276000000000     0.045530000000     0.507170000000     0.0412979  
H211     H      0.177520000000     0.962330000000     0.463680000000     0.0830574  
H212     H      0.319680000000     0.961810000000     0.465800000000     0.054503   
H213     H      0.319890000000     0.030010000000     0.538670000000     0.0553673  
H214     H      0.219920000000     0.945940000000     0.497020000000     0.040967   
H215     H      0.375920000000     0.030200000000     0.537790000000     0.0339171  
H216     H      0.116320000000     0.970890000000     0.438760000000     0.15675    
H217     H      0.961960000000     0.620890000000     0.963430000000     0.0312843  
H218     H      0.032070000000     0.876490000000     0.966940000000     0.02853    
H219     H      0.947430000000     0.719690000000     0.999120000000     0.0406405  
H220     H      0.046910000000     0.776900000000     0.000010000000     0.0377843  
H221     H      0.032730000000     0.820690000000     0.966090000000     0.0592202  
H222     H      0.047340000000     0.720440000000     0.998790000000     0.0399935  
H223     H      0.960580000000     0.819050000000     0.034690000000     0.082324   
H224     H      0.961460000000     0.676940000000     0.963980000000     0.0544945  
H225     H      0.033950000000     0.676300000000     0.032510000000     0.0540772  
H226     H      0.947000000000     0.776150000000     0.999570000000     0.0398274  
H227     H      0.034130000000     0.620240000000     0.031280000000     0.0305523  
H228     H      0.966990000000     0.880730000000     0.059320000000     0.155662   
H229     H      0.033040000000     0.120740000000     0.031870000000     0.0339251  
H230     H      0.961630000000     0.376920000000     0.029250000000     0.0288146  
H231     H      0.046670000000     0.219960000000     0.997750000000     0.0412468  
H232     H      0.946960000000     0.276780000000     0.997100000000     0.0375474  
H233     H      0.960900000000     0.321070000000     0.030580000000     0.0593503  
H234     H      0.946760000000     0.220290000000     0.998030000000     0.0404258  
H235     H      0.033280000000     0.318790000000     0.962250000000     0.0830863  
H236     H      0.033010000000     0.176770000000     0.032210000000     0.0557001  
H237     H      0.960300000000     0.176540000000     0.963910000000     0.0541926  
H238     H      0.046870000000     0.276390000000     0.997630000000     0.0409218  
H239     H      0.960630000000     0.120460000000     0.964280000000     0.0307825  
H240     H      0.027020000000     0.380190000000     0.937080000000     0.156827   
H241     H      0.874910000000     0.033520000000     0.963730000000     0.030858   
H242     H      0.618970000000     0.967090000000     0.035260000000     0.0292259  
H243     H      0.775330000000     0.997520000000     0.049760000000     0.0400502  
H244     H      0.718610000000     0.003160000000     0.950160000000     0.0404518  
H245     H      0.674740000000     0.966110000000     0.035390000000     0.0593251  
H246     H      0.774980000000     0.002410000000     0.949920000000     0.0405493  
H247     H      0.675870000000     0.036750000000     0.965190000000     0.0821641  
H248     H      0.818910000000     0.034430000000     0.963910000000     0.0540893  
H249     H      0.818670000000     0.964770000000     0.035380000000     0.055044   
H250     H      0.718940000000     0.998190000000     0.049980000000     0.0378644  
H251     H      0.874690000000     0.964820000000     0.035090000000     0.0337461  
H252     H      0.614260000000     0.061140000000     0.972850000000     0.155547   
H253     H      0.118510000000     0.962040000000     0.964300000000     0.030746   
H254     H      0.374330000000     0.031600000000     0.033120000000     0.0347814  
H255     H      0.218030000000     0.946990000000     0.996570000000     0.0402641  
H256     H      0.275250000000     0.046380000000     0.000580000000     0.0397982  
H257     H      0.318580000000     0.031840000000     0.033470000000     0.0610024  
H258     H      0.218860000000     0.046850000000     0.000510000000     0.0415284  
H259     H      0.318110000000     0.960330000000     0.964130000000     0.0826041  
H260     H      0.174530000000     0.961520000000     0.963770000000     0.0542057  
H261     H      0.175180000000     0.033060000000     0.033350000000     0.0545779  
H262     H      0.274420000000     0.946520000000     0.996670000000     0.0380186  
H263     H      0.119170000000     0.033420000000     0.032980000000     0.0314914  
H264     H      0.379920000000     0.936160000000     0.972800000000     0.156152   
H265     H      0.030420000000     0.960280000000     0.877640000000     0.03107    
H266     H      0.030990000000     0.029510000000     0.621120000000     0.0294589  
H267     H      0.997010000000     0.945350000000     0.778150000000     0.0407976  
H268     H      0.997370000000     0.044460000000     0.720270000000     0.0372778  
H269     H      0.031560000000     0.030160000000     0.676930000000     0.05957    
H270     H      0.997630000000     0.045260000000     0.776730000000     0.0402712  
H271     H      0.963320000000     0.957680000000     0.678220000000     0.0822111  
H272     H      0.031020000000     0.959340000000     0.821600000000     0.0546809  
H273     H      0.963220000000     0.032510000000     0.820290000000     0.054089   
H274     H      0.997590000000     0.944550000000     0.721690000000     0.0402617  
H275     H      0.963350000000     0.033140000000     0.876360000000     0.030786   
H276     H      0.939000000000     0.963860000000     0.616480000000     0.155827   
H277     H      0.963420000000     0.034690000000     0.377730000000     0.0308132  
H278     H      0.963340000000     0.964370000000     0.121100000000     0.0291017  
H279     H      0.996510000000     0.049360000000     0.277850000000     0.0409053  
H280     H      0.996260000000     0.949840000000     0.220660000000     0.0370771  
H281     H      0.962270000000     0.964050000000     0.176930000000     0.0595222  
H282     H      0.995890000000     0.949440000000     0.277130000000     0.0402705  
H283     H      0.031080000000     0.035990000000     0.178400000000     0.0829669  
H284     H      0.962510000000     0.035420000000     0.321640000000     0.0543528  
H285     H      0.030840000000     0.962760000000     0.320230000000     0.0545966  
H286     H      0.996120000000     0.049750000000     0.221360000000     0.0397084  
H287     H      0.031070000000     0.962360000000     0.376270000000     0.032174   
H288     H      0.055930000000     0.029160000000     0.116910000000     0.156465   
N1       N      0.499060000000     0.499670000000     0.615840000000    -0.211404   
N2       N      0.497490000000     0.499170000000     0.880050000000    -0.184186   
N3       N      0.498530000000     0.499390000000     0.115950000000    -0.211556   
N4       N      0.496900000000     0.495830000000     0.380040000000    -0.183821   
N5       N      0.498650000000     0.615040000000     0.495700000000    -0.211388   
N6       N      0.498810000000     0.879270000000     0.498970000000    -0.183714   
N7       N      0.496590000000     0.115040000000     0.501760000000    -0.211467   
N8       N      0.498090000000     0.379280000000     0.499290000000    -0.184213   
N9       N      0.500470000000     0.881170000000     0.001530000000    -0.211131   
N10      N      0.499810000000     0.616910000000     0.998510000000    -0.184228   
N11      N      0.494200000000     0.117070000000     0.000680000000    -0.211053   
N12      N      0.496830000000     0.381310000000     0.998420000000    -0.1843     
N13      N      0.499630000000     0.995830000000     0.618360000000    -0.211723   
N14      N      0.497370000000     0.998380000000     0.882510000000    -0.18366    
N15      N      0.495740000000     0.000180000000     0.118320000000    -0.209625   
N16      N      0.496900000000     0.997990000000     0.382500000000    -0.18394    
N17      N      0.616300000000     0.495980000000     0.496790000000    -0.211031   
N18      N      0.880450000000     0.496700000000     0.496700000000    -0.184117   
N19      N      0.116360000000     0.495050000000     0.495720000000    -0.211159   
N20      N      0.380430000000     0.497020000000     0.499240000000    -0.183858   
N21      N      0.880100000000     0.498980000000     0.995050000000    -0.211593   
N22      N      0.616010000000     0.497450000000     0.997140000000    -0.18393    
N23      N      0.116250000000     0.498320000000     0.995050000000    -0.211155   
N24      N      0.380340000000     0.500280000000     0.998120000000    -0.184307   
N25      N      0.999630000000     0.497910000000     0.613880000000    -0.211686   
N26      N      0.998300000000     0.498880000000     0.878030000000    -0.18396    
N27      N      0.998760000000     0.494110000000     0.377850000000    -0.211636   
N28      N      0.998270000000     0.497550000000     0.113630000000    -0.184292   
N29      N      0.998050000000     0.877800000000     0.495470000000    -0.210809   
N30      N      0.998110000000     0.613660000000     0.494420000000    -0.183993   
N31      N      0.998360000000     0.113900000000     0.501820000000    -0.211723   
N32      N      0.997310000000     0.378040000000     0.497740000000    -0.18394    
N33      N      0.615820000000     0.998670000000     0.499210000000    -0.211645   
N34      N      0.880040000000     0.996150000000     0.499260000000    -0.184536   
N35      N      0.115800000000     0.995370000000     0.499040000000    -0.210685   
N36      N      0.380030000000     0.996160000000     0.501800000000    -0.184008   
N37      N      0.996030000000     0.880440000000     0.001060000000    -0.211556   
N38      N      0.998070000000     0.616340000000     0.997290000000    -0.184534   
N39      N      0.997820000000     0.380490000000     0.995260000000    -0.211317   
N40      N      0.996860000000     0.116370000000     0.998060000000    -0.184141   
N41      N      0.614780000000     0.002110000000     0.000100000000    -0.210974   
N42      N      0.879030000000     0.999140000000     0.999400000000    -0.184191   
N43      N      0.378860000000     0.995780000000     0.998830000000    -0.210872   
N44      N      0.114610000000     0.997760000000     0.998650000000    -0.184622   
N45      N      0.997030000000     0.993340000000     0.617000000000    -0.211634   
N46      N      0.996870000000     0.996770000000     0.881230000000    -0.18456    
N47      N      0.997610000000     0.000250000000     0.117090000000    -0.210705   
N48      N      0.997260000000     0.998460000000     0.381230000000    -0.184576   
O1       O      0.996800000000     0.998510000000     0.999050000000    -0.368951   
O2       O      0.979160000000     0.981540000000     0.070860000000    -0.303871   
O3       O      0.068320000000     0.016510000000     0.016520000000    -0.301138   
O4       O      0.014430000000     0.926660000000     0.982330000000    -0.304642   
O5       O      0.015280000000     0.017610000000     0.069940000000    -0.289556   
O6       O      0.978190000000     0.927590000000     0.018290000000    -0.291345   
O7       O      0.067960000000     0.979600000000     0.981060000000    -0.302832   
O8       O      0.979010000000     0.015910000000     0.927420000000    -0.301221   
O9       O      0.015280000000     0.070010000000     0.016070000000    -0.298358   
O10      O      0.014460000000     0.978980000000     0.928020000000    -0.301318   
O11      O      0.978650000000     0.069780000000     0.980330000000    -0.302131   
O12      O      0.925540000000     0.016490000000     0.980690000000    -0.30116    
O13      O      0.925450000000     0.981270000000     0.017850000000    -0.298576   
O14      O      0.997760000000     0.995870000000     0.499030000000    -0.369487   
O15      O      0.979590000000     0.015930000000     0.428140000000    -0.301492   
O16      O      0.068940000000     0.978360000000     0.480340000000    -0.287513   
O17      O      0.016370000000     0.066670000000     0.518650000000    -0.290468   
O18      O      0.015490000000     0.979470000000     0.427270000000    -0.301      
O19      O      0.979890000000     0.067770000000     0.482940000000    -0.304974   
O20      O      0.069280000000     0.013010000000     0.517840000000    -0.299533   
O21      O      0.979740000000     0.975770000000     0.569760000000    -0.290383   
O22      O      0.015990000000     0.925180000000     0.479120000000    -0.28745    
O23      O      0.015390000000     0.012320000000     0.570850000000    -0.301888   
O24      O      0.979650000000     0.923760000000     0.514940000000    -0.3009     
O25      O      0.926480000000     0.977230000000     0.516590000000    -0.302392   
O26      O      0.926520000000     0.014640000000     0.481630000000    -0.302329   
O27      O      0.998150000000     0.498540000000     0.995870000000    -0.368669   
O28      O      0.016040000000     0.427340000000     0.977770000000    -0.287567   
O29      O      0.979760000000     0.480220000000     0.067010000000    -0.301973   
O30      O      0.069810000000     0.516450000000     0.013550000000    -0.303962   
O31      O      0.979480000000     0.427020000000     0.013400000000    -0.303202   
O32      O      0.069320000000     0.480290000000     0.977520000000    -0.288452   
O33      O      0.016730000000     0.515650000000     0.067270000000    -0.301009   
O34      O      0.980110000000     0.570060000000     0.978570000000    -0.302219   
O35      O      0.926510000000     0.480820000000     0.013580000000    -0.304575   
O36      O      0.016460000000     0.569670000000     0.014620000000    -0.301632   
O37      O      0.927060000000     0.516750000000     0.977300000000    -0.291348   
O38      O      0.980630000000     0.517410000000     0.924510000000    -0.299502   
O39      O      0.015940000000     0.480360000000     0.924500000000    -0.300986   
O40      O      0.998240000000     0.495850000000     0.495880000000    -0.368317   
O41      O      0.979520000000     0.424910000000     0.515170000000    -0.302441   
O42      O      0.016470000000     0.476690000000     0.424970000000    -0.289881   
O43      O      0.926930000000     0.513590000000     0.477500000000    -0.302713   
O44      O      0.015750000000     0.424110000000     0.479020000000    -0.298445   
O45      O      0.926910000000     0.478940000000     0.515200000000    -0.302427   
O46      O      0.980310000000     0.512740000000     0.424120000000    -0.304631   
O47      O      0.016620000000     0.567380000000     0.512510000000    -0.298896   
O48      O      0.069460000000     0.476740000000     0.478330000000    -0.288376   
O49      O      0.979960000000     0.566990000000     0.476780000000    -0.301609   
O50      O      0.069880000000     0.514110000000     0.513100000000    -0.304135   
O51      O      0.016970000000     0.515200000000     0.566580000000    -0.290075   
O52      O      0.981010000000     0.478970000000     0.567800000000    -0.30434    
O53      O      0.496840000000     0.999080000000     0.000310000000    -0.369193   
O54      O      0.426300000000     0.978640000000     0.981690000000    -0.289875   
O55      O      0.477260000000     0.016760000000     0.071210000000    -0.28951    
O56      O      0.516970000000     0.928580000000     0.019380000000    -0.290277   
O57      O      0.424760000000     0.015250000000     0.017250000000    -0.297      
O58      O      0.481220000000     0.927070000000     0.982940000000    -0.304601   
O59      O      0.515180000000     0.982580000000     0.072050000000    -0.301593   
O60      O      0.567560000000     0.018870000000     0.982070000000    -0.291675   
O61      O      0.476700000000     0.069880000000     0.018110000000    -0.290532   
O62      O      0.568660000000     0.983340000000     0.018740000000    -0.305411   
O63      O      0.513180000000     0.070910000000     0.982410000000    -0.304755   
O64      O      0.514290000000     0.017710000000     0.928940000000    -0.29809    
O65      O      0.480050000000     0.979670000000     0.929040000000    -0.299178   
O66      O      0.497820000000     0.997040000000     0.500330000000    -0.368585   
O67      O      0.426580000000     0.014210000000     0.519750000000    -0.298199   
O68      O      0.479100000000     0.979590000000     0.428990000000    -0.301995   
O69      O      0.514770000000     0.068830000000     0.482800000000    -0.304473   
O70      O      0.426410000000     0.978720000000     0.482860000000    -0.302115   
O71      O      0.479320000000     0.067900000000     0.519530000000    -0.291415   
O72      O      0.515150000000     0.015930000000     0.428990000000    -0.298234   
O73      O      0.569630000000     0.979580000000     0.517330000000    -0.304448   
O74      O      0.480060000000     0.925810000000     0.481710000000    -0.302255   
O75      O      0.568660000000     0.016310000000     0.481870000000    -0.290617   
O76      O      0.516900000000     0.925670000000     0.517250000000    -0.299262   
O77      O      0.517020000000     0.978230000000     0.571180000000    -0.291277   
O78      O      0.480780000000     0.014180000000     0.572170000000    -0.303628   
O79      O      0.498170000000     0.499110000000     0.997870000000    -0.367334   
O80      O      0.426930000000     0.518270000000     0.980160000000    -0.302608   
O81      O      0.479430000000     0.428080000000     0.016410000000    -0.302153   
O82      O      0.515330000000     0.480620000000     0.926440000000    -0.302931   
O83      O      0.426700000000     0.481740000000     0.016020000000    -0.302597   
O84      O      0.480080000000     0.517740000000     0.926630000000    -0.302541   
O85      O      0.515280000000     0.427480000000     0.979870000000    -0.302549   
O86      O      0.569880000000     0.515940000000     0.015680000000    -0.299245   
O87      O      0.479860000000     0.481650000000     0.069430000000    -0.304922   
O88      O      0.569200000000     0.480140000000     0.979110000000    -0.302225   
O89      O      0.516940000000     0.516730000000     0.069080000000    -0.291593   
O90      O      0.517480000000     0.570080000000     0.016100000000    -0.301868   
O91      O      0.480980000000     0.570800000000     0.980210000000    -0.302854   
O92      O      0.498250000000     0.497050000000     0.497870000000    -0.368011   
O93      O      0.426710000000     0.515040000000     0.480630000000    -0.299863   
O94      O      0.480520000000     0.425980000000     0.517350000000    -0.302667   
O95      O      0.515570000000     0.478280000000     0.426490000000    -0.299905   
O96      O      0.427090000000     0.479050000000     0.517020000000    -0.302358   
O97      O      0.479060000000     0.514130000000     0.426530000000    -0.301985   
O98      O      0.515810000000     0.425510000000     0.480270000000    -0.302242   
O99      O      0.570040000000     0.514790000000     0.515120000000    -0.301411   
O100     O      0.480990000000     0.480320000000     0.569740000000    -0.304827   
O101     O      0.569180000000     0.478470000000     0.479240000000    -0.291238   
O102     O      0.516850000000     0.516660000000     0.568590000000    -0.290607   
O103     O      0.517090000000     0.568710000000     0.514170000000    -0.303674   
O104     O      0.480100000000     0.568020000000     0.478980000000    -0.291003   
O105     O      0.536440000000     0.540900000000     0.617660000000    -0.289855   
O106     O      0.539330000000     0.537200000000     0.118610000000    -0.290006   
O107     O      0.459440000000     0.617260000000     0.456210000000    -0.289942   
O108     O      0.458720000000     0.117110000000     0.542550000000    -0.289676   
O109     O      0.540380000000     0.879620000000     0.040330000000    -0.28987    
O110     O      0.454980000000     0.119070000000     0.040170000000    -0.287704   
O111     O      0.538740000000     0.956250000000     0.620430000000    -0.289785   
O112     O      0.454240000000     0.037270000000     0.120430000000    -0.287963   
O113     O      0.618330000000     0.456830000000     0.457210000000    -0.29027    
O114     O      0.119000000000     0.453880000000     0.458310000000    -0.289034   
O115     O      0.877650000000     0.537380000000     0.954780000000    -0.289925   
O116     O      0.118750000000     0.458120000000     0.956580000000    -0.285234   
O117     O      0.038290000000     0.537960000000     0.615590000000    -0.289772   
O118     O      0.038880000000     0.455550000000     0.375700000000    -0.289671   
O119     O      0.038260000000     0.876390000000     0.456950000000    -0.285122   
O120     O      0.038860000000     0.115870000000     0.540000000000    -0.289996   
O121     O      0.617820000000     0.039230000000     0.461090000000    -0.289795   
O122     O      0.118400000000     0.958110000000     0.457710000000    -0.285034   
O123     O      0.955740000000     0.878310000000     0.039460000000    -0.289837   
O124     O      0.038220000000     0.377930000000     0.956990000000    -0.285119   
O125     O      0.616630000000     0.041670000000     0.960950000000    -0.289932   
O126     O      0.377400000000     0.955380000000     0.960520000000    -0.289364   
O127     O      0.958940000000     0.952760000000     0.618950000000    -0.289386   
O128     O      0.036080000000     0.040470000000     0.119150000000    -0.289643   
Zn1      Zn     0.970660000000     0.973000000000     0.025750000000     0.45477    
Zn2      Zn     0.023170000000     0.024880000000     0.024590000000     0.456674   
Zn3      Zn     0.022640000000     0.971700000000     0.973380000000     0.452714   
Zn4      Zn     0.970790000000     0.024420000000     0.972590000000     0.452879   
Zn5      Zn     0.971730000000     0.022790000000     0.473660000000     0.45247    
Zn6      Zn     0.023780000000     0.970530000000     0.472230000000     0.459425   
Zn7      Zn     0.023980000000     0.021190000000     0.525820000000     0.456269   
Zn8      Zn     0.971720000000     0.968850000000     0.524320000000     0.454253   
Zn9      Zn     0.024080000000     0.472430000000     0.969710000000     0.459051   
Zn10     Zn     0.971710000000     0.472390000000     0.021700000000     0.452436   
Zn11     Zn     0.024570000000     0.524310000000     0.022060000000     0.453132   
Zn12     Zn     0.972310000000     0.524940000000     0.969800000000     0.454446   
Zn13     Zn     0.972170000000     0.470400000000     0.522750000000     0.452044   
Zn14     Zn     0.024190000000     0.469120000000     0.470320000000     0.458045   
Zn15     Zn     0.972140000000     0.521530000000     0.469270000000     0.451953   
Zn16     Zn     0.024680000000     0.522350000000     0.521200000000     0.456695   
Zn17     Zn     0.471840000000     0.971890000000     0.974280000000     0.455915   
Zn18     Zn     0.469630000000     0.024470000000     0.025910000000     0.45899    
Zn19     Zn     0.523640000000     0.974160000000     0.026900000000     0.454665   
Zn20     Zn     0.522170000000     0.025890000000     0.974180000000     0.455873   
Zn21     Zn     0.471870000000     0.022550000000     0.527170000000     0.456059   
Zn22     Zn     0.471590000000     0.971060000000     0.474230000000     0.453329   
Zn23     Zn     0.523310000000     0.023770000000     0.474250000000     0.455854   
Zn24     Zn     0.524570000000     0.970880000000     0.525750000000     0.454775   
Zn25     Zn     0.472290000000     0.525720000000     0.971970000000     0.451867   
Zn26     Zn     0.471830000000     0.473420000000     0.024180000000     0.453173   
Zn27     Zn     0.523750000000     0.472600000000     0.971590000000     0.452626   
Zn28     Zn     0.524850000000     0.524700000000     0.023880000000     0.455843   
Zn29     Zn     0.471790000000     0.522770000000     0.471790000000     0.455896   
Zn30     Zn     0.472490000000     0.471330000000     0.524730000000     0.452607   
Zn31     Zn     0.523910000000     0.470620000000     0.471710000000     0.45574    
Zn32     Zn     0.524840000000     0.523540000000     0.523150000000     0.454922   


