data_structure

_audit_creation_method RASPA-1.0
_audit_creation_date 2023-5-19
_audit_author_name 'Poobodin Mano'

_cell_length_a    43.1918
_cell_length_b    43.2126
_cell_length_c    43.2119
_cell_angle_alpha 90
_cell_angle_beta  90
_cell_angle_gamma 90
_cell_volume      80652

_symmetry_cell_setting          triclinic
_symmetry_space_group_name_Hall 'P 1'
_symmetry_space_group_name_H-M  'P 1'
_symmetry_Int_Tables_number     1

_symmetry_equiv_pos_as_xyz 'x,y,z'

loop_
_atom_site_label
_atom_site_type_symbol
_atom_site_fract_x
_atom_site_fract_y
_atom_site_fract_z
_atom_site_charge
C1       C      0.003910000000     0.996550000000     0.084460000000     0.372611   
C2       C      0.084490000000     0.996790000000     0.995730000000     0.367994   
C3       C      0.996380000000     0.911510000000     0.998280000000     0.36861    
C4       C      0.996290000000     0.997720000000     0.912570000000     0.367782   
C5       C      0.997960000000     0.083610000000     0.998750000000     0.368965   
C6       C      0.912400000000     0.999370000000     0.002990000000     0.371291   
C7       C      0.001580000000     0.999820000000     0.412420000000     0.369104   
C8       C      0.085420000000     0.994630000000     0.502490000000     0.370783   
C9       C      0.003180000000     0.085320000000     0.497820000000     0.36981    
C10      C      0.994660000000     0.001330000000     0.584390000000     0.372815   
C11      C      0.997900000000     0.913260000000     0.498480000000     0.36954    
C12      C      0.913600000000     0.001050000000     0.495900000000     0.370447   
C13      C      0.999160000000     0.411570000000     0.998170000000     0.371648   
C14      C      0.082170000000     0.499080000000     0.003280000000     0.371553   
C15      C      0.001280000000     0.496290000000     0.912670000000     0.37266    
C16      C      0.993450000000     0.583650000000     0.995260000000     0.369857   
C17      C      0.991510000000     0.498380000000     0.084620000000     0.370277   
C18      C      0.910340000000     0.495310000000     0.995630000000     0.369409   
C19      C      0.004650000000     0.413430000000     0.499130000000     0.370861   
C20      C      0.996180000000     0.499710000000     0.412570000000     0.368622   
C21      C      0.912450000000     0.495510000000     0.501290000000     0.371777   
C22      C      0.993210000000     0.585240000000     0.500200000000     0.371271   
C23      C      0.084420000000     0.504530000000     0.496290000000     0.370656   
C24      C      0.999930000000     0.498730000000     0.584610000000     0.371049   
C25      C      0.412700000000     0.997280000000     0.992450000000     0.369904   
C26      C      0.494890000000     0.991090000000     0.081620000000     0.370282   
C27      C      0.495570000000     0.906040000000     0.995960000000     0.368891   
C28      C      0.584480000000     0.990470000000     0.998170000000     0.367939   
C29      C      0.502490000000     0.078120000000     0.995330000000     0.372057   
C30      C      0.501500000000     0.989200000000     0.909350000000     0.371583   
C31      C      0.413470000000     0.998910000000     0.497080000000     0.367954   
C32      C      0.497890000000     0.000730000000     0.409170000000     0.370704   
C33      C      0.497710000000     0.086980000000     0.495760000000     0.370284   
C34      C      0.585580000000     0.005450000000     0.495210000000     0.372316   
C35      C      0.504010000000     0.914890000000     0.492490000000     0.370416   
C36      C      0.500180000000     0.998910000000     0.581270000000     0.368212   
C37      C      0.409980000000     0.489180000000     0.996390000000     0.371331   
C38      C      0.497020000000     0.406190000000     0.994290000000     0.370093   
C39      C      0.495250000000     0.494750000000     0.909570000000     0.371069   
C40      C      0.582220000000     0.495050000000     0.991000000000     0.370765   
C41      C      0.500250000000     0.489550000000     0.081380000000     0.3711     
C42      C      0.492030000000     0.578080000000     0.999750000000     0.370379   
C43      C      0.412500000000     0.505920000000     0.497370000000     0.37217    
C44      C      0.493280000000     0.414960000000     0.493070000000     0.372187   
C45      C      0.498850000000     0.501360000000     0.409340000000     0.368999   
C46      C      0.584350000000     0.497530000000     0.496340000000     0.369376   
C47      C      0.499140000000     0.497850000000     0.581500000000     0.3725     
C48      C      0.501620000000     0.586940000000     0.496170000000     0.368773   
C49      C      0.481650000000     0.474310000000     0.661970000000    -0.0559451  
C50      C      0.476330000000     0.515490000000     0.862010000000     0.0735153  
C51      C      0.515370000000     0.476940000000     0.861470000000     0.0751707  
C52      C      0.476320000000     0.516500000000     0.829680000000    -0.0891654  
C53      C      0.493640000000     0.525330000000     0.761880000000    -0.0319497  
C54      C      0.493930000000     0.525360000000     0.729510000000    -0.0354145  
C55      C      0.496230000000     0.497420000000     0.778430000000    -0.00505195 
C56      C      0.516000000000     0.477410000000     0.829190000000    -0.0888506  
C57      C      0.496740000000     0.497480000000     0.712970000000     0.00138003 
C58      C      0.513970000000     0.519480000000     0.662080000000    -0.0809417  
C59      C      0.499310000000     0.469610000000     0.729540000000    -0.035512   
C60      C      0.514760000000     0.518490000000     0.629820000000     0.0694632  
C61      C      0.483410000000     0.473180000000     0.629560000000     0.0295579  
C62      C      0.498990000000     0.469570000000     0.761840000000    -0.0315533  
C63      C      0.496230000000     0.497210000000     0.812840000000     0.051433   
C64      C      0.497160000000     0.497340000000     0.678560000000     0.0398915  
C65      C      0.469900000000     0.445250000000     0.614750000000     0.293528   
C66      C      0.485540000000     0.468100000000     0.162930000000    -0.0561011  
C67      C      0.479440000000     0.519520000000     0.360900000000     0.0722935  
C68      C      0.519430000000     0.481980000000     0.362030000000     0.0726115  
C69      C      0.479260000000     0.518920000000     0.328540000000    -0.0893253  
C70      C      0.495770000000     0.524620000000     0.260190000000    -0.0320452  
C71      C      0.495940000000     0.522980000000     0.227860000000    -0.0355242  
C72      C      0.499380000000     0.497720000000     0.278150000000    -0.00529552 
C73      C      0.519930000000     0.480880000000     0.329770000000    -0.0897638  
C74      C      0.499700000000     0.494410000000     0.212740000000     0.00141331 
C75      C      0.515860000000     0.514590000000     0.160750000000    -0.0813662  
C76      C      0.503260000000     0.467530000000     0.230720000000    -0.0356018  
C77      C      0.516340000000     0.512280000000     0.128560000000     0.0693569  
C78      C      0.487020000000     0.465690000000     0.130550000000     0.0282091  
C79      C      0.503020000000     0.469150000000     0.262990000000    -0.0316797  
C80      C      0.499560000000     0.499300000000     0.312550000000     0.0507492  
C81      C      0.500080000000     0.492560000000     0.178350000000     0.0397525  
C82      C      0.475130000000     0.436410000000     0.116980000000     0.2922     
C83      C      0.490620000000     0.833530000000     0.469470000000    -0.0563524  
C84      C      0.520790000000     0.634290000000     0.517170000000     0.0722117  
C85      C      0.485680000000     0.635290000000     0.475010000000     0.0726041  
C86      C      0.522070000000     0.666620000000     0.517390000000    -0.0898083  
C87      C      0.504540000000     0.735090000000     0.522860000000    -0.0325866  
C88      C      0.504790000000     0.767460000000     0.522170000000    -0.0357881  
C89      C      0.506240000000     0.717970000000     0.495260000000    -0.00561246 
C90      C      0.486640000000     0.667560000000     0.474420000000    -0.0899491  
C91      C      0.506910000000     0.783410000000     0.493860000000     0.000891217
C92      C      0.522490000000     0.835300000000     0.514930000000    -0.0811247  
C93      C      0.509180000000     0.766180000000     0.466330000000    -0.035883   
C94      C      0.521930000000     0.867560000000     0.513560000000     0.0678326  
C95      C      0.491120000000     0.865990000000     0.467920000000     0.0262207  
C96      C      0.508730000000     0.733880000000     0.467020000000    -0.0322535  
C97      C      0.504980000000     0.683640000000     0.495750000000     0.0507266  
C98      C      0.506480000000     0.817850000000     0.492930000000     0.0387019  
C99      C      0.477970000000     0.879960000000     0.439370000000     0.291381   
C100     C      0.469870000000     0.334250000000     0.509910000000    -0.0556866  
C101     C      0.516830000000     0.135200000000     0.477020000000     0.0743478  
C102     C      0.477150000000     0.134460000000     0.514940000000     0.0731417  
C103     C      0.516670000000     0.167510000000     0.476870000000    -0.0891207  
C104     C      0.522870000000     0.235190000000     0.496240000000    -0.0323158  
C105     C      0.522080000000     0.267520000000     0.495880000000    -0.0352192  
C106     C      0.495280000000     0.217990000000     0.495730000000    -0.00523598 
C107     C      0.476170000000     0.166760000000     0.515120000000    -0.0896932  
C108     C      0.493660000000     0.283400000000     0.494750000000     0.00131415 
C109     C      0.514440000000     0.334560000000     0.476790000000    -0.0808435  
C110     C      0.466070000000     0.266090000000     0.494130000000    -0.0354236  
C111     C      0.513370000000     0.366800000000     0.476310000000     0.0693206  
C112     C      0.468550000000     0.366700000000     0.508330000000     0.0295118  
C113     C      0.466870000000     0.233770000000     0.494760000000    -0.032033   
C114     C      0.496090000000     0.183670000000     0.495970000000     0.0512702  
C115     C      0.492800000000     0.317840000000     0.494020000000     0.0398643  
C116     C      0.440770000000     0.381340000000     0.522340000000     0.293588   
C117     C      0.506450000000     0.659280000000     0.022710000000    -0.0555666  
C118     C      0.475920000000     0.858550000000     0.975820000000     0.0721972  
C119     C      0.513040000000     0.857820000000     0.016210000000     0.073442   
C120     C      0.475100000000     0.826220000000     0.975430000000    -0.0892556  
C121     C      0.465100000000     0.758570000000     0.991400000000    -0.0319563  
C122     C      0.464530000000     0.726230000000     0.992000000000    -0.0361457  
C123     C      0.492980000000     0.774760000000     0.996090000000    -0.0059725  
C124     C      0.512610000000     0.825520000000     0.016590000000    -0.0886601  
C125     C      0.491760000000     0.709330000000     0.997530000000     0.000678025
C126     C      0.474530000000     0.657820000000     0.977260000000    -0.0808159  
C127     C      0.519650000000     0.725430000000     0.002050000000    -0.0356824  
C128     C      0.474480000000     0.625590000000     0.978820000000     0.0676798  
C129     C      0.505280000000     0.626810000000     0.024490000000     0.0261016  
C130     C      0.520280000000     0.757740000000     0.001210000000    -0.0308399  
C131     C      0.493580000000     0.809230000000     0.995990000000     0.0502692  
C132     C      0.491090000000     0.675010000000     0.998990000000     0.0381216  
C133     C      0.517780000000     0.612590000000     0.053220000000     0.293694   
C134     C      0.524470000000     0.159240000000     0.978400000000    -0.0558481  
C135     C      0.477330000000     0.358020000000     0.012560000000     0.076156   
C136     C      0.517280000000     0.358650000000     0.974970000000     0.0740002  
C137     C      0.477250000000     0.325700000000     0.012540000000    -0.0882435  
C138     C      0.494190000000     0.258330000000     0.021230000000    -0.0307746  
C139     C      0.494840000000     0.226010000000     0.021340000000    -0.0349512  
C140     C      0.498380000000     0.274920000000     0.993520000000    -0.00545043 
C141     C      0.517960000000     0.326340000000     0.974540000000    -0.0885732  
C142     C      0.499930000000     0.209480000000     0.993820000000     0.00124748 
C143     C      0.479450000000     0.158090000000     0.010940000000    -0.0789015  
C144     C      0.504200000000     0.225960000000     0.966120000000    -0.0357611  
C145     C      0.481060000000     0.125900000000     0.011360000000     0.0709313  
C146     C      0.526300000000     0.126770000000     0.979900000000     0.0265703  
C147     C      0.503310000000     0.258300000000     0.965950000000    -0.0310597  
C148     C      0.497800000000     0.309380000000     0.993470000000     0.0512098  
C149     C      0.501080000000     0.175140000000     0.994100000000     0.0388744  
C150     C      0.554730000000     0.112500000000     0.966800000000     0.293813   
C151     C      0.486930000000     0.966390000000     0.828120000000    -0.0560763  
C152     C      0.480500000000     0.016280000000     0.629840000000     0.0729022  
C153     C      0.520280000000     0.978520000000     0.628420000000     0.072313   
C154     C      0.480340000000     0.015490000000     0.662170000000    -0.088739   
C155     C      0.497310000000     0.021600000000     0.730150000000    -0.0312196  
C156     C      0.497550000000     0.020330000000     0.762480000000    -0.035033   
C157     C      0.500730000000     0.994490000000     0.712460000000    -0.00592043 
C158     C      0.520770000000     0.977220000000     0.660700000000    -0.0894531  
C159     C      0.501230000000     0.991920000000     0.777920000000     0.00102648 
C160     C      0.517380000000     0.012820000000     0.829610000000    -0.0793459  
C161     C      0.504670000000     0.964820000000     0.760220000000    -0.035821   
C162     C      0.517690000000     0.011100000000     0.861830000000     0.0693796  
C163     C      0.488180000000     0.964600000000     0.860580000000     0.0263391  
C164     C      0.504360000000     0.966090000000     0.727920000000    -0.0316365  
C165     C      0.500620000000     0.995780000000     0.678040000000     0.0502031  
C166     C      0.501600000000     0.990530000000     0.812330000000     0.0384652  
C167     C      0.476210000000     0.935620000000     0.874780000000     0.293622   
C168     C      0.472590000000     0.009090000000     0.162340000000    -0.0557007  
C169     C      0.515060000000     0.020770000000     0.360700000000     0.073342   
C170     C      0.480010000000     0.978560000000     0.361930000000     0.073974   
C171     C      0.515180000000     0.020250000000     0.328370000000    -0.0882416  
C172     C      0.494390000000     0.024270000000     0.260730000000    -0.0312028  
C173     C      0.493820000000     0.023090000000     0.228400000000    -0.0354742  
C174     C      0.497670000000     0.997020000000     0.278170000000    -0.00589678 
C175     C      0.479900000000     0.977160000000     0.329650000000    -0.08861    
C176     C      0.496900000000     0.994680000000     0.212870000000     0.000431864
C177     C      0.516960000000     0.975650000000     0.161940000000    -0.0813047  
C178     C      0.500570000000     0.967480000000     0.230300000000    -0.0358329  
C179     C      0.515460000000     0.974690000000     0.129720000000     0.0683967  
C180     C      0.470750000000     0.006910000000     0.129950000000     0.0276502  
C181     C      0.500770000000     0.968620000000     0.262630000000    -0.0321966  
C182     C      0.497600000000     0.998160000000     0.312480000000     0.0505118  
C183     C      0.495710000000     0.993380000000     0.178570000000     0.0385986  
C184     C      0.442440000000     0.020080000000     0.115510000000     0.29168    
C185     C      0.831850000000     0.476990000000     0.524020000000    -0.0561265  
C186     C      0.631710000000     0.475610000000     0.478330000000     0.0723885  
C187     C      0.632690000000     0.515700000000     0.515760000000     0.0726469  
C188     C      0.664020000000     0.473990000000     0.478620000000    -0.089682   
C189     C      0.732500000000     0.488480000000     0.471110000000    -0.0323115  
C190     C      0.764860000000     0.487940000000     0.471710000000    -0.0358521  
C191     C      0.715490000000     0.492330000000     0.498580000000    -0.00543149 
C192     C      0.664980000000     0.514700000000     0.516590000000    -0.0896882  
C193     C      0.780960000000     0.491210000000     0.499790000000     0.00119317 
C194     C      0.831970000000     0.508080000000     0.478020000000    -0.0807762  
C195     C      0.763930000000     0.494770000000     0.527290000000    -0.0355226  
C196     C      0.864180000000     0.509320000000     0.479420000000     0.0706979  
C197     C      0.864290000000     0.479180000000     0.525520000000     0.0274341  
C198     C      0.731600000000     0.495300000000     0.526700000000    -0.0318767  
C199     C      0.681090000000     0.493650000000     0.497930000000     0.0507846  
C200     C      0.815390000000     0.491710000000     0.500370000000     0.0395272  
C201     C      0.878920000000     0.466900000000     0.554100000000     0.290854   
C202     C      0.331070000000     0.493240000000     0.520720000000    -0.0558863  
C203     C      0.132810000000     0.487180000000     0.476220000000     0.0745173  
C204     C      0.131630000000     0.526860000000     0.514070000000     0.0732421  
C205     C      0.165120000000     0.488140000000     0.475600000000    -0.0888261  
C206     C      0.232600000000     0.506240000000     0.467550000000    -0.0320686  
C207     C      0.264970000000     0.506200000000     0.468120000000    -0.0353744  
C208     C      0.215550000000     0.509540000000     0.495090000000    -0.00508577 
C209     C      0.163910000000     0.528500000000     0.513960000000    -0.0896208  
C210     C      0.281030000000     0.509440000000     0.496230000000     0.00142596 
C211     C      0.332910000000     0.524180000000     0.474640000000    -0.0809005  
C212     C      0.263970000000     0.513080000000     0.523700000000    -0.035596   
C213     C      0.365180000000     0.523480000000     0.475950000000     0.0694132  
C214     C      0.363540000000     0.493510000000     0.522140000000     0.0294492  
C215     C      0.231650000000     0.513060000000     0.523150000000    -0.031489   
C216     C      0.181120000000     0.508860000000     0.494730000000     0.0512641  
C217     C      0.315450000000     0.508760000000     0.497030000000     0.0398819  
C218     C      0.377480000000     0.480290000000     0.550660000000     0.293742   
C219     C      0.663010000000     0.479510000000     0.967110000000    -0.0558705  
C220     C      0.861760000000     0.512300000000     0.015450000000     0.0751231  
C221     C      0.863180000000     0.476080000000     0.974270000000     0.0732407  
C222     C      0.829440000000     0.511920000000     0.015260000000    -0.088127   
C223     C      0.762020000000     0.491620000000     0.020600000000    -0.0316232  
C224     C      0.729670000000     0.491890000000     0.019790000000    -0.03463    
C225     C      0.779260000000     0.493250000000     0.993060000000    -0.0057095  
C226     C      0.830850000000     0.475380000000     0.973250000000    -0.0893476  
C227     C      0.713800000000     0.494010000000     0.991440000000     0.000852316
C228     C      0.662510000000     0.511140000000     0.012740000000    -0.0793956  
C229     C      0.731140000000     0.495690000000     0.963910000000    -0.0354089  
C230     C      0.630250000000     0.511570000000     0.011620000000     0.0696585  
C231     C      0.630540000000     0.481070000000     0.965780000000     0.0268957  
C232     C      0.763470000000     0.495160000000     0.964720000000    -0.0318702  
C233     C      0.813600000000     0.493420000000     0.993920000000     0.050744   
C234     C      0.679330000000     0.494660000000     0.990590000000     0.0386555  
C235     C      0.615970000000     0.468580000000     0.937240000000     0.291629   
C236     C      0.329270000000     0.467710000000     0.015660000000    -0.056709   
C237     C      0.130690000000     0.519080000000     0.986230000000     0.0749021  
C238     C      0.129350000000     0.478570000000     0.023230000000     0.0739661  
C239     C      0.163020000000     0.518700000000     0.986360000000    -0.0894195  
C240     C      0.231050000000     0.523110000000     0.005120000000    -0.0322214  
C241     C      0.263360000000     0.521580000000     0.004100000000    -0.0347867  
C242     C      0.213200000000     0.495930000000     0.004490000000    -0.0047684  
C243     C      0.161660000000     0.477380000000     0.023690000000    -0.0897915  
C244     C      0.278560000000     0.492840000000     0.002200000000     0.000832127
C245     C      0.329670000000     0.512550000000     0.982910000000    -0.0820357  
C246     C      0.260610000000     0.465670000000     0.001580000000    -0.0338079  
C247     C      0.361840000000     0.510630000000     0.981340000000     0.0692625  
C248     C      0.361650000000     0.465580000000     0.013020000000     0.0280823  
C249     C      0.228330000000     0.467210000000     0.002850000000    -0.0317281  
C250     C      0.178880000000     0.497490000000     0.005010000000     0.0526524  
C251     C      0.312960000000     0.491200000000     0.000500000000     0.0409519  
C252     C      0.376160000000     0.437150000000     0.025840000000     0.293512   
C253     C      0.024200000000     0.513530000000     0.831840000000    -0.0559327  
C254     C      0.980270000000     0.479630000000     0.632460000000     0.0750001  
C255     C      0.019940000000     0.517520000000     0.632480000000     0.0741496  
C256     C      0.979940000000     0.479340000000     0.664760000000    -0.0888331  
C257     C      0.996270000000     0.470410000000     0.732250000000    -0.0320286  
C258     C      0.996390000000     0.470180000000     0.764580000000    -0.0361972  
C259     C      0.000290000000     0.498250000000     0.715840000000    -0.00488208 
C260     C      0.020350000000     0.517670000000     0.664800000000    -0.0891236  
C261     C      0.000740000000     0.497730000000     0.781280000000     0.00162433 
C262     C      0.979860000000     0.480080000000     0.832330000000    -0.0813459  
C263     C      0.004810000000     0.525560000000     0.764960000000    -0.0359675  
C264     C      0.980970000000     0.479720000000     0.864560000000     0.0695425  
C265     C      0.025560000000     0.512080000000     0.864300000000     0.029444   
C266     C      0.004490000000     0.525840000000     0.732620000000    -0.0312135  
C267     C      0.000170000000     0.498450000000     0.681400000000     0.0518851  
C268     C      0.001390000000     0.497360000000     0.815610000000     0.0401781  
C269     C      0.053250000000     0.526360000000     0.878810000000     0.293806   
C270     C      0.968080000000     0.515830000000     0.165210000000    -0.0559852  
C271     C      0.016260000000     0.482690000000     0.364090000000     0.073022   
C272     C      0.973960000000     0.517640000000     0.365370000000     0.0727829  
C273     C      0.016030000000     0.482940000000     0.331770000000    -0.0891219  
C274     C      0.021050000000     0.503330000000     0.264450000000    -0.0318869  
C275     C      0.020370000000     0.503440000000     0.232110000000    -0.0352169  
C276     C      0.993450000000     0.501190000000     0.281540000000    -0.00547703 
C277     C      0.972930000000     0.518240000000     0.333070000000    -0.0894527  
C278     C      0.992090000000     0.501230000000     0.216120000000     0.00118367 
C279     C      0.013530000000     0.483900000000     0.165090000000    -0.0800723  
C280     C      0.964490000000     0.499120000000     0.233290000000    -0.0355117  
C281     C      0.012390000000     0.483090000000     0.132880000000     0.0693312  
C282     C      0.966770000000     0.513960000000     0.132760000000     0.0264448  
C283     C      0.965170000000     0.499200000000     0.265610000000    -0.0317884  
C284     C      0.994170000000     0.500820000000     0.315880000000     0.050821   
C285     C      0.991420000000     0.500610000000     0.181690000000     0.0389759  
C286     C      0.938460000000     0.526780000000     0.118040000000     0.291382   
C287     C      0.968950000000     0.665940000000     0.484810000000    -0.0563601  
C288     C      0.015970000000     0.865110000000     0.478550000000     0.0724563  
C289     C      0.978430000000     0.865740000000     0.518570000000     0.0729184  
C290     C      0.015610000000     0.832800000000     0.478150000000    -0.0892425  
C291     C      0.022770000000     0.764870000000     0.494450000000    -0.0318986  
C292     C      0.021980000000     0.732540000000     0.494500000000    -0.0353286  
C293     C      0.995420000000     0.782110000000     0.498270000000    -0.00531239 
C294     C      0.977580000000     0.833450000000     0.518850000000    -0.0889299  
C295     C      0.993830000000     0.716660000000     0.498430000000     0.000893603
C296     C      0.015850000000     0.665520000000     0.514580000000    -0.0809759  
C297     C      0.966490000000     0.733910000000     0.502190000000    -0.0355364  
C298     C      0.014670000000     0.633300000000     0.515240000000     0.0689229  
C299     C      0.967670000000     0.633490000000     0.486500000000     0.0269846  
C300     C      0.967260000000     0.766220000000     0.502040000000    -0.0318094  
C301     C      0.996230000000     0.816520000000     0.498420000000     0.0506524  
C302     C      0.993040000000     0.682260000000     0.498990000000     0.0390145  
C303     C      0.938740000000     0.618870000000     0.475000000000     0.290819   
C304     C      0.030310000000     0.333170000000     0.483500000000    -0.0560375  
C305     C      0.985830000000     0.133500000000     0.477380000000     0.0724733  
C306     C      0.023690000000     0.132820000000     0.517080000000     0.0726381  
C307     C      0.986290000000     0.165790000000     0.476880000000    -0.0900715  
C308     C      0.978430000000     0.233330000000     0.493780000000    -0.0323627  
C309     C      0.978700000000     0.265670000000     0.493940000000    -0.036049   
C310     C      0.006090000000     0.216500000000     0.497170000000    -0.00517651 
C311     C      0.024650000000     0.165140000000     0.517260000000    -0.0896664  
C312     C      0.006620000000     0.281980000000     0.497550000000     0.00156332 
C313     C      0.983900000000     0.332720000000     0.514020000000    -0.0809878  
C314     C      0.034290000000     0.265160000000     0.500940000000    -0.0358079  
C315     C      0.984400000000     0.364960000000     0.514550000000     0.0683324  
C316     C      0.030910000000     0.365660000000     0.485020000000     0.0264482  
C317     C      0.034030000000     0.232820000000     0.500720000000    -0.0318079  
C318     C      0.005740000000     0.182070000000     0.497070000000     0.0511443  
C319     C      0.006810000000     0.316400000000     0.498120000000     0.0392212  
C320     C      0.059310000000     0.380850000000     0.472960000000     0.291509   
C321     C      0.666240000000     0.029100000000     0.478410000000    -0.0563122  
C322     C      0.864960000000     0.981010000000     0.512530000000     0.071408   
C323     C      0.866530000000     0.022670000000     0.476840000000     0.0727543  
C324     C      0.832640000000     0.981200000000     0.511970000000    -0.0906691  
C325     C      0.765410000000     0.975970000000     0.491140000000    -0.0330286  
C326     C      0.733070000000     0.976710000000     0.491020000000    -0.0362762  
C327     C      0.782560000000     0.003530000000     0.493090000000    -0.00504657 
C328     C      0.834230000000     0.023650000000     0.475950000000    -0.0901507  
C329     C      0.717130000000     0.005020000000     0.493070000000     0.00163711 
C330     C      0.666020000000     0.983690000000     0.510370000000    -0.081791   
C331     C      0.734360000000     0.032590000000     0.494990000000    -0.0357272  
C332     C      0.633780000000     0.984800000000     0.511030000000     0.0683639  
C333     C      0.633780000000     0.030400000000     0.480160000000     0.0267842  
C334     C      0.766690000000     0.031850000000     0.494880000000    -0.0320101  
C335     C      0.816900000000     0.002740000000     0.493610000000     0.0516453  
C336     C      0.682680000000     0.005760000000     0.493670000000     0.0397896  
C337     C      0.619080000000     0.058740000000     0.467380000000     0.291427   
C338     C      0.166220000000     0.970400000000     0.487790000000    -0.0563588  
C339     C      0.365660000000     0.018820000000     0.516140000000     0.0726374  
C340     C      0.365540000000     0.977290000000     0.480270000000     0.0722232  
C341     C      0.333340000000     0.018620000000     0.517130000000    -0.0892096  
C342     C      0.265170000000     0.023890000000     0.499140000000    -0.0319615  
C343     C      0.232820000000     0.023110000000     0.499920000000    -0.0350098  
C344     C      0.282400000000     0.996350000000     0.500530000000    -0.00591506 
C345     C      0.333220000000     0.976270000000     0.480960000000    -0.0891589  
C346     C      0.216960000000     0.994770000000     0.502340000000     0.000478056
C347     C      0.165630000000     0.016100000000     0.519330000000    -0.0804224  
C348     C      0.234310000000     0.967250000000     0.504020000000    -0.0355447  
C349     C      0.133360000000     0.015060000000     0.519530000000     0.0685274  
C350     C      0.133730000000     0.969180000000     0.489060000000     0.0258657  
C351     C      0.266630000000     0.968030000000     0.502980000000    -0.0320765  
C352     C      0.316740000000     0.997120000000     0.499500000000     0.0501212  
C353     C      0.182500000000     0.993890000000     0.502990000000     0.0383179  
C354     C      0.118990000000     0.940680000000     0.476590000000     0.293617   
C355     C      0.008410000000     0.664620000000     0.971860000000    -0.0556381  
C356     C      0.977220000000     0.863910000000     0.018610000000     0.0728106  
C357     C      0.013050000000     0.863440000000     0.977040000000     0.0726547  
C358     C      0.976260000000     0.831600000000     0.018700000000    -0.0891194  
C359     C      0.994470000000     0.763500000000     0.024540000000    -0.0316898  
C360     C      0.994220000000     0.731150000000     0.023970000000    -0.0352732  
C361     C      0.993090000000     0.780520000000     0.996860000000    -0.00618698 
C362     C      0.012450000000     0.831150000000     0.976340000000    -0.0895808  
C363     C      0.992410000000     0.715110000000     0.995700000000     0.000782695
C364     C      0.975860000000     0.663620000000     0.016860000000    -0.0796798  
C365     C      0.990650000000     0.732220000000     0.968060000000    -0.0358697  
C366     C      0.975990000000     0.631370000000     0.015740000000     0.068876   
C367     C      0.007470000000     0.632160000000     0.970530000000     0.0269786  
C368     C      0.991110000000     0.764520000000     0.968630000000    -0.0320354  
C369     C      0.993940000000     0.814840000000     0.997340000000     0.0499906  
C370     C      0.992430000000     0.680680000000     0.994980000000     0.0379852  
C371     C      0.020910000000     0.617800000000     0.942310000000     0.291592   
C372     C      0.022310000000     0.330740000000     0.014470000000    -0.0551632  
C373     C      0.976520000000     0.131430000000     0.981470000000     0.0728421  
C374     C      0.018490000000     0.131470000000     0.016850000000     0.0740367  
C375     C      0.976010000000     0.163760000000     0.981400000000    -0.0897512  
C376     C      0.969960000000     0.231520000000     0.000770000000    -0.0313171  
C377     C      0.970380000000     0.263880000000     0.000780000000    -0.0346315  
C378     C      0.997710000000     0.214650000000     0.999000000000    -0.00591283 
C379     C      0.018770000000     0.163770000000     0.017120000000    -0.0880723  
C380     C      0.998570000000     0.280070000000     0.998860000000     0.000606791
C381     C      0.977110000000     0.331370000000     0.982190000000    -0.0806375  
C382     C      0.026290000000     0.263110000000     0.996830000000    -0.0350815  
C383     C      0.978260000000     0.363610000000     0.981910000000     0.068637   
C384     C      0.023630000000     0.363210000000     0.013180000000     0.0274912  
C385     C      0.025870000000     0.230800000000     0.997010000000    -0.031446   
C386     C      0.997410000000     0.180310000000     0.999240000000     0.0505454  
C387     C      0.999120000000     0.314500000000     0.998770000000     0.0385815  
C388     C      0.051880000000     0.377820000000     0.026320000000     0.293186   
C389     C      0.830560000000     0.019550000000     0.988000000000    -0.056264   
C390     C      0.631910000000     0.970300000000     0.018060000000     0.0734263  
C391     C      0.632800000000     0.010640000000     0.980920000000     0.0744304  
C392     C      0.664270000000     0.969930000000     0.019010000000    -0.0896551  
C393     C      0.731960000000     0.986250000000     0.029170000000    -0.0319017  
C394     C      0.764310000000     0.987340000000     0.029840000000    -0.0364845  
C395     C      0.715790000000     0.990610000000     0.001230000000    -0.00504504 
C396     C      0.665090000000     0.011030000000     0.981460000000    -0.0899835  
C397     C      0.781220000000     0.993020000000     0.002650000000     0.00227008 
C398     C      0.833290000000     0.974420000000     0.020260000000    -0.0809117  
C399     C      0.765140000000     0.997000000000     0.974680000000    -0.0379669  
C400     C      0.865470000000     0.977010000000     0.020450000000     0.0674502  
C401     C      0.862950000000     0.022370000000     0.989290000000     0.025394   
C402     C      0.732840000000     0.995690000000     0.973950000000    -0.0316748  
C403     C      0.681320000000     0.990450000000     0.000550000000     0.0514203  
C404     C      0.815490000000     0.995480000000     0.003450000000     0.0383116  
C405     C      0.876310000000     0.051450000000     0.976620000000     0.293827   
C406     C      0.331820000000     0.021280000000     0.007790000000    -0.0538705  
C407     C      0.131950000000     0.975710000000     0.976920000000     0.0720791  
C408     C      0.132780000000     0.017440000000     0.012540000000     0.0729464  
C409     C      0.164300000000     0.975310000000     0.976030000000    -0.0894664  
C410     C      0.232480000000     0.969130000000     0.994130000000    -0.0321664  
C411     C      0.264850000000     0.969540000000     0.993870000000    -0.0352888  
C412     C      0.215600000000     0.996900000000     0.992730000000    -0.00568631 
C413     C      0.165080000000     0.017820000000     0.012000000000    -0.0882564  
C414     C      0.281070000000     0.997720000000     0.992030000000     0.00118421 
C415     C      0.332390000000     0.976200000000     0.975400000000    -0.0796735  
C416     C      0.264090000000     0.025440000000     0.990280000000    -0.0348413  
C417     C      0.364660000000     0.977090000000     0.975420000000     0.0694021  
C418     C      0.364310000000     0.022350000000     0.006780000000     0.02988    
C419     C      0.231770000000     0.025040000000     0.990740000000    -0.0313268  
C420     C      0.181240000000     0.996620000000     0.993600000000     0.0496626  
C421     C      0.315530000000     0.998240000000     0.991940000000     0.038398   
C422     C      0.378880000000     0.050180000000     0.020720000000     0.293829   
C423     C      0.969030000000     0.987250000000     0.664890000000    -0.0570848  
C424     C      0.014240000000     0.978150000000     0.864210000000     0.0722628  
C425     C      0.976940000000     0.018370000000     0.865210000000     0.0730153  
C426     C      0.014080000000     0.978240000000     0.831880000000    -0.0890601  
C427     C      0.022040000000     0.995480000000     0.764320000000    -0.0314935  
C428     C      0.021600000000     0.995940000000     0.731980000000    -0.0366273  
C429     C      0.994560000000     0.999410000000     0.781340000000    -0.00630651 
C430     C      0.976310000000     0.019160000000     0.832910000000    -0.0882017  
C431     C      0.993680000000     0.000410000000     0.715850000000     0.00190255 
C432     C      0.016520000000     0.016070000000     0.664850000000    -0.080773   
C433     C      0.966220000000     0.004400000000     0.732880000000    -0.0359705  
C434     C      0.015760000000     0.016530000000     0.632600000000     0.0689245  
C435     C      0.968200000000     0.988700000000     0.632390000000     0.0257664  
C436     C      0.966640000000     0.003830000000     0.765200000000    -0.030677   
C437     C      0.994990000000     0.998930000000     0.815780000000     0.0498793  
C438     C      0.993220000000     0.001020000000     0.681420000000     0.0393709  
C439     C      0.939230000000     0.977790000000     0.617340000000     0.293525   
C440     C      0.029340000000     0.012020000000     0.164750000000    -0.0557553  
C441     C      0.984070000000     0.020220000000     0.364250000000     0.0727276  
C442     C      0.021060000000     0.979700000000     0.364910000000     0.072749   
C443     C      0.984400000000     0.020560000000     0.331930000000    -0.0891602  
C444     C      0.976490000000     0.003710000000     0.264240000000    -0.0318327  
C445     C      0.976970000000     0.003300000000     0.231910000000    -0.0353037  
C446     C      0.003960000000     0.999820000000     0.281270000000    -0.00548356 
C447     C      0.021880000000     0.979360000000     0.332610000000    -0.0889648  
C448     C      0.004930000000     0.998940000000     0.215830000000     0.000909699
C449     C      0.982300000000     0.982470000000     0.165060000000    -0.0814296  
C450     C      0.032400000000     0.995110000000     0.232850000000    -0.0354586  
C451     C      0.983070000000     0.981640000000     0.132840000000     0.0684288  
C452     C      0.030170000000     0.010240000000     0.132270000000     0.0269783  
C453     C      0.031930000000     0.995600000000     0.265170000000    -0.0317105  
C454     C      0.003430000000     0.999940000000     0.315680000000     0.0505405  
C455     C      0.005370000000     0.998070000000     0.181430000000     0.0389504  
C456     C      0.058940000000     0.021460000000     0.117060000000     0.29345    
H1       H      0.531120000000     0.461220000000     0.873070000000     0.0369448  
H2       H      0.527720000000     0.536620000000     0.618280000000     0.0336909  
H3       H      0.500650000000     0.447620000000     0.773820000000     0.0415494  
H4       H      0.491670000000     0.547210000000     0.717430000000     0.0424468  
H5       H      0.526770000000     0.537420000000     0.674020000000     0.0542185  
H6       H      0.491790000000     0.547220000000     0.773940000000     0.0409421  
H7       H      0.468790000000     0.456630000000     0.674320000000     0.0595671  
H8       H      0.532160000000     0.462470000000     0.817170000000     0.0570921  
H9       H      0.460400000000     0.531940000000     0.817990000000     0.0561901  
H10      H      0.501940000000     0.447750000000     0.717570000000     0.0438682  
H11      H      0.460420000000     0.530660000000     0.874100000000     0.0319725  
H12      H      0.431530000000     0.418150000000     0.612770000000     0.185743   
H13      H      0.535610000000     0.467230000000     0.374310000000     0.0318905  
H14      H      0.528340000000     0.530470000000     0.116110000000     0.0322818  
H15      H      0.505470000000     0.447910000000     0.276060000000     0.0413363  
H16      H      0.492880000000     0.544090000000     0.214700000000     0.0427151  
H17      H      0.528010000000     0.533560000000     0.171760000000     0.0547156  
H18      H      0.493210000000     0.547040000000     0.271100000000     0.0405523  
H19      H      0.473670000000     0.450380000000     0.176160000000     0.0602564  
H20      H      0.536430000000     0.465790000000     0.318430000000     0.055687   
H21      H      0.462880000000     0.533340000000     0.316200000000     0.0559332  
H22      H      0.506640000000     0.445190000000     0.219890000000     0.0435491  
H23      H      0.463170000000     0.534850000000     0.372320000000     0.0315429  
H24      H      0.439360000000     0.405900000000     0.117940000000     0.189469   
H25      H      0.471090000000     0.623870000000     0.458080000000     0.0319588  
H26      H      0.534150000000     0.879870000000     0.531700000000     0.0330256  
H27      H      0.510630000000     0.721320000000     0.445400000000     0.0409429  
H28      H      0.502660000000     0.779980000000     0.543780000000     0.0416114  
H29      H      0.535590000000     0.824140000000     0.533150000000     0.0533678  
H30      H      0.502300000000     0.723470000000     0.544950000000     0.0407687  
H31      H      0.478450000000     0.820490000000     0.451820000000     0.058778   
H32      H      0.472760000000     0.679860000000     0.457550000000     0.0562114  
H33      H      0.536740000000     0.678170000000     0.534120000000     0.0555092  
H34      H      0.511590000000     0.777640000000     0.444170000000     0.0428829  
H35      H      0.534530000000     0.622020000000     0.534210000000     0.031487   
H36      H      0.441260000000     0.878840000000     0.410000000000     0.184069   
H37      H      0.461360000000     0.122300000000     0.530190000000     0.0317163  
H38      H      0.531240000000     0.378450000000     0.463090000000     0.0339254  
H39      H      0.445240000000     0.221110000000     0.493900000000     0.0414176  
H40      H      0.543760000000     0.280070000000     0.496870000000     0.0425089  
H41      H      0.532190000000     0.322850000000     0.463520000000     0.0538895  
H42      H      0.545100000000     0.223630000000     0.497360000000     0.0420602  
H43      H      0.452510000000     0.321800000000     0.523100000000     0.0592776  
H44      H      0.460110000000     0.178430000000     0.530440000000     0.0565309  
H45      H      0.532260000000     0.179740000000     0.461510000000     0.0567788  
H46      H      0.443780000000     0.277460000000     0.492620000000     0.0434842  
H47      H      0.533040000000     0.123640000000     0.461740000000     0.036612   
H48      H      0.414280000000     0.383040000000     0.561130000000     0.185396   
H49      H      0.528100000000     0.869370000000     0.032620000000     0.03215    
H50      H      0.462120000000     0.613440000000     0.960670000000     0.0339146  
H51      H      0.542280000000     0.769360000000     0.004310000000     0.0410927  
H52      H      0.442620000000     0.714450000000     0.988810000000     0.0422634  
H53      H      0.462250000000     0.669170000000     0.958580000000     0.054007   
H54      H      0.443550000000     0.770880000000     0.987880000000     0.0406825  
H55      H      0.518060000000     0.672390000000     0.040700000000     0.0587684  
H56      H      0.526890000000     0.813460000000     0.033290000000     0.0559322  
H57      H      0.460350000000     0.814670000000     0.958780000000     0.0559553  
H58      H      0.541080000000     0.713000000000     0.005940000000     0.0453181  
H59      H      0.461330000000     0.870700000000     0.959410000000     0.0312389  
H60      H      0.508300000000     0.582340000000     0.087960000000     0.184825   
H61      H      0.533400000000     0.370770000000     0.960030000000     0.0343579  
H62      H      0.463080000000     0.113920000000     0.024150000000     0.0415776  
H63      H      0.506120000000     0.270250000000     0.944100000000     0.0415679  
H64      H      0.491950000000     0.213950000000     0.043130000000     0.0436349  
H65      H      0.460920000000     0.169550000000     0.023350000000     0.0564428  
H66      H      0.490920000000     0.270310000000     0.042990000000     0.0421932  
H67      H      0.542260000000     0.172240000000     0.966360000000     0.0588763  
H68      H      0.534590000000     0.314790000000     0.959770000000     0.0570791  
H69      H      0.460870000000     0.313640000000     0.027190000000     0.057158   
H70      H      0.507820000000     0.213810000000     0.944490000000     0.0456581  
H71      H      0.461000000000     0.369620000000     0.027690000000     0.0337989  
H72      H      0.590420000000     0.083290000000     0.976080000000     0.185813   
H73      H      0.536350000000     0.963780000000     0.616020000000     0.0317798  
H74      H      0.529680000000     0.029490000000     0.874010000000     0.0376424  
H75      H      0.506710000000     0.944700000000     0.715060000000     0.0407195  
H76      H      0.494580000000     0.041610000000     0.775390000000     0.0431697  
H77      H      0.529630000000     0.031560000000     0.818320000000     0.055709   
H78      H      0.494810000000     0.043920000000     0.719020000000     0.0410582  
H79      H      0.475080000000     0.948470000000     0.815140000000     0.058594   
H80      H      0.537190000000     0.961980000000     0.671960000000     0.0556276  
H81      H      0.464060000000     0.029950000000     0.674580000000     0.0560098  
H82      H      0.507970000000     0.942600000000     0.771320000000     0.0432985  
H83      H      0.464330000000     0.031800000000     0.618550000000     0.0318929  
H84      H      0.486410000000     0.900930000000     0.904860000000     0.185514   
H85      H      0.465930000000     0.961850000000     0.374280000000     0.03692    
H86      H      0.533210000000     0.961370000000     0.117990000000     0.0337449  
H87      H      0.503580000000     0.947280000000     0.275480000000     0.0421039  
H88      H      0.491140000000     0.044430000000     0.215530000000     0.0452296  
H89      H      0.535170000000     0.963070000000     0.173720000000     0.054338   
H90      H      0.491750000000     0.046460000000     0.272100000000     0.041646   
H91      H      0.455000000000     0.021720000000     0.175070000000     0.059996   
H92      H      0.465740000000     0.959930000000     0.318190000000     0.0572069  
H93      H      0.529350000000     0.036770000000     0.315900000000     0.0567826  
H94      H      0.502740000000     0.945240000000     0.218950000000     0.0427015  
H95      H      0.529190000000     0.038120000000     0.372060000000     0.0337283  
H96      H      0.414220000000     0.057670000000     0.114710000000     0.188113   
H97      H      0.621250000000     0.532420000000     0.530570000000     0.0319599  
H98      H      0.875760000000     0.521970000000     0.461090000000     0.0363047  
H99      H      0.719230000000     0.497920000000     0.548340000000     0.041335   
H100     H      0.777280000000     0.484890000000     0.450140000000     0.0417061  
H101     H      0.820140000000     0.520320000000     0.459610000000     0.0546603  
H102     H      0.720840000000     0.486420000000     0.449010000000     0.0402121  
H103     H      0.819380000000     0.464550000000     0.541920000000     0.0588362  
H104     H      0.677230000000     0.530680000000     0.531530000000     0.0559505  
H105     H      0.675480000000     0.457100000000     0.464070000000     0.0556055  
H106     H      0.775580000000     0.497760000000     0.549290000000     0.0438307  
H107     H      0.619460000000     0.459860000000     0.463110000000     0.0315454  
H108     H      0.880330000000     0.429930000000     0.583090000000     0.184475   
H109     H      0.119300000000     0.542450000000     0.529400000000     0.0316385  
H110     H      0.377500000000     0.535320000000     0.457570000000     0.0337647  
H111     H      0.219290000000     0.515320000000     0.544830000000     0.0416356  
H112     H      0.277410000000     0.503150000000     0.446570000000     0.0426659  
H113     H      0.321740000000     0.536950000000     0.456180000000     0.0541839  
H114     H      0.220940000000     0.503840000000     0.445500000000     0.0407196  
H115     H      0.317970000000     0.481470000000     0.538620000000     0.0598552  
H116     H      0.175270000000     0.545230000000     0.528770000000     0.0557695  
H117     H      0.177450000000     0.472240000000     0.460650000000     0.0571247  
H118     H      0.275580000000     0.516100000000     0.545700000000     0.0437388  
H119     H      0.121440000000     0.470570000000     0.461230000000     0.0360128  
H120     H      0.377260000000     0.442940000000     0.579200000000     0.187501   
H121     H      0.875630000000     0.461700000000     0.957890000000     0.0318665  
H122     H      0.618470000000     0.524080000000     0.029920000000     0.0368678  
H123     H      0.776150000000     0.496910000000     0.943150000000     0.0416139  
H124     H      0.717100000000     0.490070000000     0.041400000000     0.0426928  
H125     H      0.674170000000     0.523840000000     0.030940000000     0.0551219  
H126     H      0.773570000000     0.489770000000     0.042770000000     0.042194   
H127     H      0.675550000000     0.467050000000     0.949300000000     0.0590839  
H128     H      0.819440000000     0.460550000000     0.956560000000     0.0564535  
H129     H      0.816960000000     0.526440000000     0.031440000000     0.0572755  
H130     H      0.719760000000     0.497970000000     0.941700000000     0.0433649  
H131     H      0.873020000000     0.527120000000     0.032290000000     0.0376884  
H132     H      0.615720000000     0.432080000000     0.907620000000     0.184628   
H133     H      0.116950000000     0.462480000000     0.037960000000     0.031121   
H134     H      0.373540000000     0.528320000000     0.967920000000     0.0340564  
H135     H      0.215160000000     0.445890000000     0.001850000000     0.0430922  
H136     H      0.276440000000     0.542930000000     0.005100000000     0.0425109  
H137     H      0.317980000000     0.530710000000     0.970180000000     0.054291   
H138     H      0.220020000000     0.545560000000     0.006730000000     0.041743   
H139     H      0.316770000000     0.450510000000     0.028990000000     0.0593949  
H140     H      0.173080000000     0.460860000000     0.038710000000     0.0576105  
H141     H      0.175480000000     0.534480000000     0.971390000000     0.0578066  
H142     H      0.271440000000     0.443170000000     0.999490000000     0.0432249  
H143     H      0.119370000000     0.535620000000     0.971140000000     0.0377227  
H144     H      0.404960000000     0.401300000000     0.015910000000     0.186522   
H145     H      0.036020000000     0.532720000000     0.620620000000     0.0324747  
H146     H      0.963100000000     0.466520000000     0.876250000000     0.034499   
H147     H      0.007130000000     0.547770000000     0.720790000000     0.0418061  
H148     H      0.993660000000     0.448310000000     0.776510000000     0.0427339  
H149     H      0.961770000000     0.467280000000     0.820600000000     0.054691   
H150     H      0.993540000000     0.448650000000     0.720130000000     0.040887   
H151     H      0.041900000000     0.526020000000     0.819140000000     0.0590392  
H152     H      0.036740000000     0.532490000000     0.676630000000     0.0563578  
H153     H      0.963580000000     0.464460000000     0.676560000000     0.0569389  
H154     H      0.007860000000     0.547210000000     0.777230000000     0.0459128  
H155     H      0.964110000000     0.464520000000     0.620600000000     0.0373032  
H156     H      0.079340000000     0.565440000000     0.880380000000     0.183116   
H157     H      0.957160000000     0.531600000000     0.377730000000     0.0333676  
H158     H      0.030610000000     0.470270000000     0.121310000000     0.0368968  
H159     H      0.943550000000     0.497090000000     0.278150000000     0.0413165  
H160     H      0.042020000000     0.505560000000     0.219640000000     0.0424375  
H161     H      0.031640000000     0.471210000000     0.176900000000     0.0555018  
H162     H      0.043170000000     0.505320000000     0.276080000000     0.0412639  
H163     H      0.950340000000     0.528510000000     0.177630000000     0.0585813  
H164     H      0.955840000000     0.532600000000     0.321660000000     0.0566197  
H165     H      0.032630000000     0.468860000000     0.319340000000     0.0568108  
H166     H      0.942350000000     0.496780000000     0.221770000000     0.0433963  
H167     H      0.033530000000     0.468440000000     0.375420000000     0.0336623  
H168     H      0.909810000000     0.564040000000     0.116960000000     0.184202   
H169     H      0.963610000000     0.877840000000     0.534800000000     0.0350774  
H170     H      0.033450000000     0.621600000000     0.527100000000     0.0336749  
H171     H      0.945710000000     0.778750000000     0.504670000000     0.0412431  
H172     H      0.043430000000     0.719970000000     0.491270000000     0.0420254  
H173     H      0.034570000000     0.677220000000     0.526470000000     0.0541612  
H174     H      0.044910000000     0.776330000000     0.491820000000     0.0409834  
H175     H      0.950660000000     0.678500000000     0.473080000000     0.0591443  
H176     H      0.962610000000     0.821860000000     0.535280000000     0.0570754  
H177     H      0.030140000000     0.820710000000     0.461680000000     0.0563067  
H178     H      0.944460000000     0.722470000000     0.505690000000     0.0434926  
H179     H      0.031250000000     0.876710000000     0.462370000000     0.0312098  
H180     H      0.907990000000     0.618440000000     0.439430000000     0.184789   
H181     H      0.038570000000     0.120680000000     0.533240000000     0.0316864  
H182     H      0.965580000000     0.376310000000     0.526680000000     0.0358651  
H183     H      0.055800000000     0.220610000000     0.503060000000     0.0409023  
H184     H      0.957000000000     0.277890000000     0.491000000000     0.0424023  
H185     H      0.965610000000     0.320670000000     0.526230000000     0.0546887  
H186     H      0.956440000000     0.221540000000     0.491380000000     0.0406496  
H187     H      0.048680000000     0.320950000000     0.471520000000     0.0591607  
H188     H      0.039780000000     0.176740000000     0.533530000000     0.0557945  
H189     H      0.971640000000     0.177870000000     0.460520000000     0.0559135  
H190     H      0.056170000000     0.276970000000     0.504180000000     0.0433466  
H191     H      0.970370000000     0.121930000000     0.461340000000     0.031808   
H192     H      0.089390000000     0.381830000000     0.436830000000     0.184675   
H193     H      0.879030000000     0.039230000000     0.462720000000     0.0315546  
H194     H      0.622160000000     0.966580000000     0.523800000000     0.0340107  
H195     H      0.779300000000     0.053440000000     0.496840000000     0.0413154  
H196     H      0.720560000000     0.955080000000     0.489030000000     0.0420338  
H197     H      0.677780000000     0.965600000000     0.523130000000     0.0540251  
H198     H      0.777030000000     0.953830000000     0.489330000000     0.0409565  
H199     H      0.678710000000     0.046830000000     0.465770000000     0.0587225  
H200     H      0.822910000000     0.040490000000     0.461210000000     0.0560665  
H201     H      0.820080000000     0.964850000000     0.526240000000     0.0564696  
H202     H      0.722890000000     0.054760000000     0.497200000000     0.0431541  
H203     H      0.876180000000     0.964060000000     0.527240000000     0.0316439  
H204     H      0.618300000000     0.087620000000     0.430300000000     0.184335   
H205     H      0.377340000000     0.960790000000     0.465510000000     0.0338131  
H206     H      0.121520000000     0.033410000000     0.531910000000     0.0332219  
H207     H      0.279310000000     0.946460000000     0.504580000000     0.0417597  
H208     H      0.220230000000     0.044710000000     0.498130000000     0.0417744  
H209     H      0.177250000000     0.034310000000     0.532040000000     0.0534596  
H210     H      0.276690000000     0.046040000000     0.496900000000     0.0408271  
H211     H      0.178810000000     0.952530000000     0.475470000000     0.0585188  
H212     H      0.321210000000     0.959470000000     0.466730000000     0.0569538  
H213     H      0.321460000000     0.034940000000     0.532000000000     0.0556051  
H214     H      0.222960000000     0.945060000000     0.506550000000     0.0433173  
H215     H      0.377560000000     0.035770000000     0.530310000000     0.0315259  
H216     H      0.088270000000     0.906370000000     0.486200000000     0.185749   
H217     H      0.027810000000     0.875080000000     0.960420000000     0.0317033  
H218     H      0.963320000000     0.619380000000     0.033780000000     0.0357668  
H219     H      0.989500000000     0.777020000000     0.946960000000     0.0412105  
H220     H      0.996000000000     0.718720000000     0.045650000000     0.0423747  
H221     H      0.962630000000     0.675090000000     0.034800000000     0.0543823  
H222     H      0.996360000000     0.775200000000     0.046630000000     0.0409998  
H223     H      0.021010000000     0.677380000000     0.954300000000     0.0590947  
H224     H      0.026720000000     0.819040000000     0.959660000000     0.0561866  
H225     H      0.961420000000     0.819840000000     0.035140000000     0.0556958  
H226     H      0.988540000000     0.720670000000     0.945920000000     0.0434221  
H227     H      0.963060000000     0.875960000000     0.035460000000     0.0316864  
H228     H      0.058230000000     0.618000000000     0.913720000000     0.187825   
H229     H      0.035440000000     0.119640000000     0.031080000000     0.0352993  
H230     H      0.960160000000     0.375440000000     0.969160000000     0.0341662  
H231     H      0.047600000000     0.218430000000     0.995110000000     0.0417866  
H232     H      0.948630000000     0.276200000000     0.002760000000     0.0427213  
H233     H      0.959090000000     0.319760000000     0.969190000000     0.0540747  
H234     H      0.947920000000     0.219700000000     0.002670000000     0.0418834  
H235     H      0.039950000000     0.318110000000     0.027100000000     0.0589319  
H236     H      0.035470000000     0.175700000000     0.031530000000     0.0581293  
H237     H      0.959280000000     0.175700000000     0.967040000000     0.0564452  
H238     H      0.048370000000     0.274770000000     0.994630000000     0.043767   
H239     H      0.959660000000     0.119550000000     0.967170000000     0.0306444  
H240     H      0.087120000000     0.407610000000     0.017150000000     0.18632    
H241     H      0.621320000000     0.027060000000     0.965800000000     0.0309507  
H242     H      0.878160000000     0.959350000000     0.033000000000     0.0334428  
H243     H      0.721240000000     0.998500000000     0.951910000000     0.0413304  
H244     H      0.776070000000     0.984530000000     0.051810000000     0.0421817  
H245     H      0.822450000000     0.955500000000     0.032640000000     0.0536894  
H246     H      0.719620000000     0.982730000000     0.050690000000     0.0403622  
H247     H      0.816940000000     0.037040000000     0.976200000000     0.05904    
H248     H      0.677200000000     0.027730000000     0.967220000000     0.057077   
H249     H      0.675780000000     0.953340000000     0.033860000000     0.055393   
H250     H      0.777580000000     0.000960000000     0.953270000000     0.0461234  
H251     H      0.619680000000     0.953950000000     0.032640000000     0.0314101  
H252     H      0.905450000000     0.087190000000     0.985920000000     0.185688   
H253     H      0.121280000000     0.034230000000     0.027220000000     0.031935   
H254     H      0.376410000000     0.958950000000     0.962670000000     0.0370887  
H255     H      0.219390000000     0.046780000000     0.989120000000     0.0416255  
H256     H      0.277170000000     0.947780000000     0.995650000000     0.0427075  
H257     H      0.320750000000     0.958300000000     0.962260000000     0.0549845  
H258     H      0.220650000000     0.947110000000     0.996030000000     0.0412208  
H259     H      0.319230000000     0.038910000000     0.020470000000     0.059147   
H260     H      0.177320000000     0.034440000000     0.026240000000     0.0572895  
H261     H      0.175930000000     0.958700000000     0.961290000000     0.0557251  
H262     H      0.275770000000     0.047520000000     0.988160000000     0.0435121  
H263     H      0.119740000000     0.958930000000     0.962820000000     0.0316319  
H264     H      0.380060000000     0.077100000000     0.059230000000     0.18358    
H265     H      0.962150000000     0.034520000000     0.877470000000     0.0348253  
H266     H      0.034900000000     0.027920000000     0.621020000000     0.0339054  
H267     H      0.944980000000     0.006580000000     0.777520000000     0.041695   
H268     H      0.043130000000     0.992510000000     0.719610000000     0.0420801  
H269     H      0.035340000000     0.027640000000     0.676710000000     0.0541141  
H270     H      0.044020000000     0.992400000000     0.775980000000     0.0401416  
H271     H      0.950350000000     0.975970000000     0.677280000000     0.0587032  
H272     H      0.961530000000     0.035880000000     0.821490000000     0.0567721  
H273     H      0.028570000000     0.961850000000     0.819650000000     0.0556089  
H274     H      0.944360000000     0.008330000000     0.721250000000     0.0438933  
H275     H      0.029330000000     0.961690000000     0.875650000000     0.0315664  
H276     H      0.905630000000     0.989370000000     0.586510000000     0.185995   
H277     H      0.035660000000     0.963270000000     0.377020000000     0.0349666  
H278     H      0.964100000000     0.969810000000     0.121410000000     0.0337905  
H279     H      0.053570000000     0.992890000000     0.277530000000     0.0420087  
H280     H      0.955430000000     0.006610000000     0.219510000000     0.0422093  
H281     H      0.963660000000     0.970740000000     0.177060000000     0.0538047  
H282     H      0.954480000000     0.006660000000     0.275890000000     0.0404413  
H283     H      0.047860000000     0.023700000000     0.177030000000     0.0591862  
H284     H      0.036610000000     0.962700000000     0.321040000000     0.0569962  
H285     H      0.970070000000     0.037180000000     0.319820000000     0.0558766  
H286     H      0.054290000000     0.991300000000     0.221230000000     0.0437467  
H287     H      0.969030000000     0.036630000000     0.375840000000     0.03161    
H288     H      0.092670000000     0.010120000000     0.086290000000     0.186563   
N1       N      0.499220000000     0.496050000000     0.613380000000    -0.168018   
N2       N      0.495620000000     0.495750000000     0.877810000000    -0.183161   
N3       N      0.501410000000     0.488650000000     0.113270000000    -0.168274   
N4       N      0.499240000000     0.501030000000     0.377550000000    -0.18387    
N5       N      0.505800000000     0.883050000000     0.490860000000    -0.168546   
N6       N      0.502710000000     0.618710000000     0.496140000000    -0.183837   
N7       N      0.491220000000     0.383080000000     0.492440000000    -0.167871   
N8       N      0.497230000000     0.118750000000     0.495920000000    -0.183296   
N9       N      0.490420000000     0.609920000000     0.001540000000    -0.166921   
N10      N      0.494810000000     0.874260000000     0.996000000000    -0.183939   
N11      N      0.503770000000     0.110030000000     0.995570000000    -0.167187   
N12      N      0.497200000000     0.374420000000     0.993930000000    -0.183194   
N13      N      0.502610000000     0.987810000000     0.877480000000    -0.167912   
N14      N      0.500300000000     0.997910000000     0.613050000000    -0.183988   
N15      N      0.493200000000     0.990760000000     0.113520000000    -0.168612   
N16      N      0.497590000000     0.000090000000     0.377390000000    -0.182495   
N17      N      0.880540000000     0.494670000000     0.502510000000    -0.167825   
N18      N      0.616120000000     0.496290000000     0.496790000000    -0.183971   
N19      N      0.380650000000     0.507760000000     0.498940000000    -0.168072   
N20      N      0.116150000000     0.506240000000     0.495470000000    -0.183456   
N21      N      0.614090000000     0.496050000000     0.988970000000    -0.168337   
N22      N      0.878550000000     0.494530000000     0.995110000000    -0.183189   
N23      N      0.378050000000     0.487960000000     0.996790000000    -0.168176   
N24      N      0.113940000000     0.499030000000     0.004380000000    -0.182829   
N25      N      0.003110000000     0.495970000000     0.880760000000    -0.16748    
N26      N      0.000080000000     0.498610000000     0.616390000000    -0.182739   
N27      N      0.989760000000     0.498430000000     0.116510000000    -0.168235   
N28      N      0.995440000000     0.499980000000     0.380800000000    -0.183737   
N29      N      0.991360000000     0.617100000000     0.500770000000    -0.168797   
N30      N      0.997450000000     0.881490000000     0.498540000000    -0.183908   
N31      N      0.007120000000     0.381600000000     0.499650000000    -0.168208   
N32      N      0.004300000000     0.117080000000     0.497400000000    -0.183936   
N33      N      0.617470000000     0.007370000000     0.495560000000    -0.16835    
N34      N      0.881820000000     0.001570000000     0.495070000000    -0.18389    
N35      N      0.117260000000     0.992470000000     0.503870000000    -0.168285   
N36      N      0.381680000000     0.998340000000     0.497820000000    -0.183969   
N37      N      0.992200000000     0.615490000000     0.993380000000    -0.168717   
N38      N      0.995530000000     0.879750000000     0.997970000000    -0.184446   
N39      N      0.000790000000     0.379690000000     0.997700000000    -0.167876   
N40      N      0.997630000000     0.115380000000     0.999030000000    -0.18411    
N41      N      0.880490000000     0.000090000000     0.004410000000    -0.166989   
N42      N      0.616270000000     0.990440000000     0.999080000000    -0.184301   
N43      N      0.380820000000     0.999410000000     0.991440000000    -0.167681   
N44      N      0.116280000000     0.996630000000     0.995040000000    -0.184368   
N45      N      0.992400000000     0.002340000000     0.616220000000    -0.167973   
N46      N      0.995800000000     0.998060000000     0.880790000000    -0.184007   
N47      N      0.006200000000     0.996000000000     0.116290000000    -0.168425   
N48      N      0.002250000000     0.999930000000     0.380650000000    -0.184038   
O1       O      0.998430000000     0.997480000000     0.998580000000    -0.368652   
O2       O      0.984590000000     0.978860000000     0.070800000000    -0.30042    
O3       O      0.070330000000     0.015860000000     0.013250000000    -0.29907    
O4       O      0.014310000000     0.925900000000     0.979750000000    -0.301613   
O5       O      0.020260000000     0.015320000000     0.068700000000    -0.287455   
O6       O      0.979310000000     0.926520000000     0.017150000000    -0.300708   
O7       O      0.069230000000     0.977890000000     0.978920000000    -0.300767   
O8       O      0.978520000000     0.015790000000     0.927750000000    -0.29922    
O9       O      0.016990000000     0.068960000000     0.015920000000    -0.298991   
O10      O      0.014580000000     0.979410000000     0.926800000000    -0.301857   
O11      O      0.979280000000     0.068830000000     0.981300000000    -0.29924    
O12      O      0.926730000000     0.015560000000     0.982960000000    -0.288282   
O13      O      0.927570000000     0.981590000000     0.021080000000    -0.300308   
O14      O      0.999580000000     0.999390000000     0.498490000000    -0.368379   
O15      O      0.983490000000     0.018190000000     0.426820000000    -0.30219    
O16      O      0.070360000000     0.978830000000     0.482690000000    -0.288561   
O17      O      0.020710000000     0.070150000000     0.516140000000    -0.300737   
O18      O      0.018990000000     0.981280000000     0.427420000000    -0.30045    
O19      O      0.984400000000     0.071100000000     0.480000000000    -0.302338   
O20      O      0.071060000000     0.013300000000     0.520370000000    -0.299233   
O21      O      0.977900000000     0.982680000000     0.568900000000    -0.288506   
O22      O      0.015980000000     0.927680000000     0.480130000000    -0.299641   
O23      O      0.014320000000     0.018440000000     0.570460000000    -0.299283   
O24      O      0.980190000000     0.928270000000     0.516730000000    -0.299709   
O25      O      0.927510000000     0.981950000000     0.513610000000    -0.300749   
O26      O      0.929100000000     0.019680000000     0.479030000000    -0.301782   
O27      O      0.996200000000     0.497570000000     0.998610000000    -0.3691     
O28      O      0.981110000000     0.425680000000     0.979500000000    -0.298712   
O29      O      0.066790000000     0.480890000000     0.020740000000    -0.298892   
O30      O      0.018010000000     0.514750000000     0.928390000000    -0.280923   
O31      O      0.015050000000     0.426990000000     0.017610000000    -0.286183   
O32      O      0.982070000000     0.478610000000     0.926510000000    -0.299162   
O33      O      0.068150000000     0.516910000000     0.984380000000    -0.29457    
O34      O      0.975030000000     0.569170000000     0.013280000000    -0.297664   
O35      O      0.010110000000     0.479900000000     0.070980000000    -0.298099   
O36      O      0.013480000000     0.568660000000     0.979700000000    -0.287444   
O37      O      0.975310000000     0.517200000000     0.068730000000    -0.287626   
O38      O      0.924200000000     0.513690000000     0.014130000000    -0.293894   
O39      O      0.925890000000     0.477740000000     0.977660000000    -0.299853   
O40      O      0.998540000000     0.499350000000     0.498620000000    -0.36812    
O41      O      0.985560000000     0.426970000000     0.517170000000    -0.299309   
O42      O      0.015730000000     0.482640000000     0.426690000000    -0.300132   
O43      O      0.925920000000     0.514470000000     0.483070000000    -0.293909   
O44      O      0.020670000000     0.429340000000     0.480160000000    -0.287308   
O45      O      0.928560000000     0.477120000000     0.517760000000    -0.287206   
O46      O      0.977430000000     0.516650000000     0.427860000000    -0.300773   
O47      O      0.012470000000     0.571330000000     0.517760000000    -0.299868   
O48      O      0.070260000000     0.485660000000     0.478530000000    -0.295679   
O49      O      0.976510000000     0.569660000000     0.481550000000    -0.286979   
O50      O      0.069210000000     0.521630000000     0.514960000000    -0.301633   
O51      O      0.017460000000     0.517380000000     0.569860000000    -0.299161   
O52      O      0.982150000000     0.480280000000     0.569950000000    -0.293968   
O53      O      0.498640000000     0.991960000000     0.995450000000    -0.368792   
O54      O      0.426740000000     0.977760000000     0.975260000000    -0.296901   
O55      O      0.478950000000     0.010390000000     0.066100000000    -0.285976   
O56      O      0.514340000000     0.920280000000     0.013770000000    -0.299998   
O57      O      0.428180000000     0.013990000000     0.011140000000    -0.280632   
O58      O      0.477600000000     0.921190000000     0.978060000000    -0.298184   
O59      O      0.513300000000     0.972690000000     0.067600000000    -0.299352   
O60      O      0.570410000000     0.008480000000     0.979460000000    -0.297933   
O61      O      0.484230000000     0.064050000000     0.013800000000    -0.292817   
O62      O      0.569140000000     0.972530000000     0.015960000000    -0.299361   
O63      O      0.518740000000     0.062620000000     0.976230000000    -0.286639   
O64      O      0.519460000000     0.007560000000     0.923960000000    -0.296729   
O65      O      0.481900000000     0.972970000000     0.924240000000    -0.28727    
O66      O      0.499560000000     0.000920000000     0.495270000000    -0.366871   
O67      O      0.428210000000     0.017720000000     0.514430000000    -0.301895   
O68      O      0.480450000000     0.982380000000     0.424400000000    -0.295494   
O69      O      0.515370000000     0.072660000000     0.476920000000    -0.295713   
O70      O      0.428150000000     0.980650000000     0.479090000000    -0.300161   
O71      O      0.480500000000     0.071870000000     0.514430000000    -0.300972   
O72      O      0.515810000000     0.019430000000     0.423370000000    -0.29917    
O73      O      0.571780000000     0.986730000000     0.513430000000    -0.300469   
O74      O      0.483760000000     0.929420000000     0.476750000000    -0.288274   
O75      O      0.569860000000     0.021560000000     0.476190000000    -0.287028   
O76      O      0.522120000000     0.929820000000     0.510470000000    -0.299872   
O77      O      0.518320000000     0.981330000000     0.565960000000    -0.301445   
O78      O      0.481990000000     0.017450000000     0.567170000000    -0.300118   
O79      O      0.496140000000     0.492320000000     0.995450000000    -0.368666   
O80      O      0.423810000000     0.507490000000     0.977760000000    -0.29946    
O81      O      0.479170000000     0.420580000000     0.012900000000    -0.292441   
O82      O      0.512860000000     0.475800000000     0.923800000000    -0.295608   
O83      O      0.425730000000     0.472920000000     0.015250000000    -0.285674   
O84      O      0.477370000000     0.512740000000     0.924730000000    -0.300063   
O85      O      0.514720000000     0.421240000000     0.976050000000    -0.298845   
O86      O      0.568020000000     0.512930000000     0.009760000000    -0.296144   
O87      O      0.480790000000     0.472890000000     0.066780000000    -0.285068   
O88      O      0.566940000000     0.475630000000     0.974960000000    -0.287687   
O89      O      0.517870000000     0.508030000000     0.066480000000    -0.296826   
O90      O      0.511950000000     0.563280000000     0.015690000000    -0.28602    
O91      O      0.474300000000     0.563460000000     0.981140000000    -0.29918    
O92      O      0.498500000000     0.501100000000     0.495330000000    -0.368078   
O93      O      0.427470000000     0.523080000000     0.478520000000    -0.298928   
O94      O      0.476600000000     0.430580000000     0.511620000000    -0.282006   
O95      O      0.516830000000     0.483370000000     0.424350000000    -0.302173   
O96      O      0.427020000000     0.486540000000     0.514110000000    -0.282808   
O97      O      0.480430000000     0.519440000000     0.423750000000    -0.300558   
O98      O      0.512770000000     0.428880000000     0.475760000000    -0.299767   
O99      O      0.570140000000     0.516560000000     0.513910000000    -0.301218   
O100     O      0.480300000000     0.481560000000     0.565810000000    -0.282302   
O101     O      0.569170000000     0.479600000000     0.478430000000    -0.30155    
O102     O      0.517410000000     0.516490000000     0.567630000000    -0.299017   
O103     O      0.518280000000     0.571610000000     0.515170000000    -0.300671   
O104     O      0.483930000000     0.572870000000     0.477140000000    -0.30111    
O105     O      0.440750000000     0.436450000000     0.621820000000    -0.325968   
O106     O      0.485540000000     0.429460000000     0.597220000000    -0.213075   
O107     O      0.447420000000     0.425140000000     0.126090000000    -0.326506   
O108     O      0.490940000000     0.421760000000     0.098630000000    -0.21908    
O109     O      0.450120000000     0.870470000000     0.428800000000    -0.330865   
O110     O      0.492890000000     0.898960000000     0.424630000000    -0.221263   
O111     O      0.432470000000     0.374100000000     0.551590000000    -0.325165   
O112     O      0.424660000000     0.398860000000     0.507040000000    -0.213354   
O113     O      0.500790000000     0.591620000000     0.069010000000    -0.317436   
O114     O      0.542920000000     0.620800000000     0.063320000000    -0.23342    
O115     O      0.571650000000     0.092600000000     0.984000000000    -0.317262   
O116     O      0.563570000000     0.119760000000     0.940930000000    -0.232935   
O117     O      0.493600000000     0.919990000000     0.895540000000    -0.31819    
O118     O      0.451150000000     0.925220000000     0.866750000000    -0.233269   
O119     O      0.432820000000     0.048740000000     0.123440000000    -0.329382   
O120     O      0.427030000000     0.004530000000     0.097560000000    -0.212733   
O121     O      0.871520000000     0.438280000000     0.564270000000    -0.33059    
O122     O      0.896470000000     0.483130000000     0.569250000000    -0.218425   
O123     O      0.368760000000     0.451940000000     0.560530000000    -0.325363   
O124     O      0.395840000000     0.495490000000     0.565900000000    -0.213976   
O125     O      0.624500000000     0.440530000000     0.926410000000    -0.330455   
O126     O      0.597340000000     0.484190000000     0.922740000000    -0.220566   
O127     O      0.395480000000     0.420060000000     0.008160000000    -0.316901   
O128     O      0.369650000000     0.428490000000     0.051980000000    -0.229331   
O129     O      0.061170000000     0.555720000000     0.871580000000    -0.326703   
O130     O      0.069660000000     0.511190000000     0.896170000000    -0.218236   
O131     O      0.928470000000     0.555350000000     0.125820000000    -0.330839   
O132     O      0.923360000000     0.511000000000     0.100040000000    -0.22045    
O133     O      0.927060000000     0.627230000000     0.447240000000    -0.330482   
O134     O      0.924690000000     0.600400000000     0.491190000000    -0.217597   
O135     O      0.070650000000     0.372660000000     0.445010000000    -0.33029    
O136     O      0.073270000000     0.399650000000     0.488840000000    -0.220395   
O137     O      0.627140000000     0.068960000000     0.438960000000    -0.330599   
O138     O      0.600820000000     0.073640000000     0.483050000000    -0.220935   
O139     O      0.097950000000     0.925130000000     0.493720000000    -0.317868   
O140     O      0.126810000000     0.930590000000     0.451350000000    -0.233659   
O141     O      0.049170000000     0.626650000000     0.932280000000    -0.329963   
O142     O      0.005890000000     0.599050000000     0.927350000000    -0.213623   
O143     O      0.068480000000     0.398060000000     0.009200000000    -0.316244   
O144     O      0.060860000000     0.370570000000     0.052150000000    -0.231741   
O145     O      0.896700000000     0.068040000000     0.993570000000    -0.317631   
O146     O      0.867900000000     0.061070000000     0.951380000000    -0.233738   
O147     O      0.371190000000     0.058850000000     0.049740000000    -0.326039   
O148     O      0.396760000000     0.066010000000     0.005530000000    -0.219782   
O149     O      0.924660000000     0.995870000000     0.596390000000    -0.318316   
O150     O      0.927860000000     0.952990000000     0.624830000000    -0.233291   
O151     O      0.073770000000     0.003420000000     0.096270000000    -0.317804   
O152     O      0.069930000000     0.046510000000     0.124290000000    -0.232194   
Zn1      Zn     0.973090000000     0.971920000000     0.026100000000     0.454612   
Zn2      Zn     0.025580000000     0.023780000000     0.023270000000     0.461068   
Zn3      Zn     0.023480000000     0.970920000000     0.971830000000     0.453249   
Zn4      Zn     0.971560000000     0.023520000000     0.973240000000     0.458351   
Zn5      Zn     0.974780000000     0.026290000000     0.471930000000     0.454907   
Zn6      Zn     0.025370000000     0.972730000000     0.472770000000     0.459261   
Zn7      Zn     0.025850000000     0.024580000000     0.525540000000     0.453839   
Zn8      Zn     0.972250000000     0.973680000000     0.523640000000     0.459534   
Zn9      Zn     0.971790000000     0.470770000000     0.971390000000     0.455411   
Zn10     Zn     0.021240000000     0.472220000000     0.026340000000     0.460884   
Zn11     Zn     0.023270000000     0.523690000000     0.973720000000     0.466172   
Zn12     Zn     0.968740000000     0.523850000000     0.023050000000     0.460091   
Zn13     Zn     0.974330000000     0.471610000000     0.524860000000     0.46075    
Zn14     Zn     0.025400000000     0.474940000000     0.471690000000     0.45897    
Zn15     Zn     0.970490000000     0.524210000000     0.473370000000     0.459869   
Zn16     Zn     0.023780000000     0.526580000000     0.524530000000     0.45615    
Zn17     Zn     0.471790000000     0.966700000000     0.969220000000     0.45896    
Zn18     Zn     0.473360000000     0.019310000000     0.020860000000     0.467064   
Zn19     Zn     0.523310000000     0.965220000000     0.022450000000     0.454278   
Zn20     Zn     0.525770000000     0.016990000000     0.969330000000     0.4596     
Zn21     Zn     0.473410000000     0.026340000000     0.522080000000     0.453626   
Zn22     Zn     0.473510000000     0.974220000000     0.469800000000     0.458647   
Zn23     Zn     0.524320000000     0.027720000000     0.468540000000     0.460196   
Zn24     Zn     0.527070000000     0.975300000000     0.520530000000     0.453974   
Zn25     Zn     0.468740000000     0.518300000000     0.970380000000     0.454276   
Zn26     Zn     0.471170000000     0.465640000000     0.021880000000     0.465652   
Zn27     Zn     0.521770000000     0.466750000000     0.968540000000     0.461537   
Zn28     Zn     0.522880000000     0.518310000000     0.021090000000     0.459218   
Zn29     Zn     0.473190000000     0.528160000000     0.469220000000     0.453064   
Zn30     Zn     0.471500000000     0.475720000000     0.520780000000     0.473162   
Zn31     Zn     0.523700000000     0.473960000000     0.469390000000     0.454777   
Zn32     Zn     0.525160000000     0.525890000000     0.522340000000     0.453455   


