data_structure

_audit_creation_method RASPA-1.0
_audit_creation_date 2023-5-19
_audit_author_name 'Poobodin Mano'

_cell_length_a    43.2332
_cell_length_b    43.2224
_cell_length_c    43.2217
_cell_angle_alpha 90
_cell_angle_beta  90
_cell_angle_gamma 90
_cell_volume      80765.9

_symmetry_cell_setting          triclinic
_symmetry_space_group_name_Hall 'P 1'
_symmetry_space_group_name_H-M  'P 1'
_symmetry_Int_Tables_number     1

_symmetry_equiv_pos_as_xyz 'x,y,z'

loop_
_atom_site_label
_atom_site_type_symbol
_atom_site_fract_x
_atom_site_fract_y
_atom_site_fract_z
_atom_site_charge
C1       C      0.997010000000     0.997770000000     0.084860000000     0.366801   
C2       C      0.083290000000     0.996970000000     0.999150000000     0.367209   
C3       C      0.996460000000     0.911460000000     0.999080000000     0.389909   
C4       C      0.997720000000     0.997100000000     0.912590000000     0.390625   
C5       C      0.997960000000     0.083690000000     0.998440000000     0.390673   
C6       C      0.911180000000     0.998350000000     0.998460000000     0.367219   
C7       C      0.996860000000     0.998600000000     0.412600000000     0.390148   
C8       C      0.083540000000     0.998140000000     0.498150000000     0.368915   
C9       C      0.997510000000     0.084050000000     0.499320000000     0.368074   
C10      C      0.997550000000     0.997610000000     0.584810000000     0.366699   
C11      C      0.998060000000     0.911810000000     0.498370000000     0.391462   
C12      C      0.911400000000     0.997560000000     0.498800000000     0.368114   
C13      C      0.998380000000     0.411550000000     0.998040000000     0.366954   
C14      C      0.084570000000     0.497430000000     0.999750000000     0.390729   
C15      C      0.999810000000     0.498240000000     0.912360000000     0.391069   
C16      C      0.998290000000     0.583640000000     0.998750000000     0.367161   
C17      C      0.997220000000     0.497490000000     0.084590000000     0.391874   
C18      C      0.912330000000     0.497310000000     0.997180000000     0.391592   
C19      C      0.997770000000     0.411790000000     0.499210000000     0.391051   
C20      C      0.998070000000     0.497460000000     0.412480000000     0.368262   
C21      C      0.912330000000     0.498420000000     0.498770000000     0.369223   
C22      C      0.998760000000     0.584050000000     0.498370000000     0.368073   
C23      C      0.084570000000     0.497380000000     0.497910000000     0.3932     
C24      C      0.998940000000     0.498300000000     0.584530000000     0.368241   
C25      C      0.411060000000     0.996940000000     0.996830000000     0.390264   
C26      C      0.497250000000     0.998650000000     0.082940000000     0.392168   
C27      C      0.498180000000     0.912030000000     0.997330000000     0.368149   
C28      C      0.583340000000     0.999030000000     0.996490000000     0.391042   
C29      C      0.496260000000     0.084100000000     0.996570000000     0.39188    
C30      C      0.496880000000     0.997700000000     0.910630000000     0.391587   
C31      C      0.411340000000     0.997870000000     0.496330000000     0.391543   
C32      C      0.497980000000     0.998760000000     0.410720000000     0.367933   
C33      C      0.496910000000     0.084600000000     0.497170000000     0.392811   
C34      C      0.583610000000     0.998610000000     0.496890000000     0.392142   
C35      C      0.497520000000     0.912350000000     0.496780000000     0.3929     
C36      C      0.497410000000     0.998540000000     0.582880000000     0.368865   
C37      C      0.498490000000     0.497420000000     0.084150000000     0.36965    
C38      C      0.584530000000     0.497750000000     0.997940000000     0.368019   
C39      C      0.498210000000     0.411930000000     0.997520000000     0.368235   
C40      C      0.498220000000     0.498490000000     0.912040000000     0.369475   
C41      C      0.498960000000     0.584150000000     0.998710000000     0.39138    
C42      C      0.412390000000     0.498370000000     0.998290000000     0.368311   
C43      C      0.412390000000     0.498610000000     0.498300000000     0.369741   
C44      C      0.498780000000     0.497660000000     0.584190000000     0.393244   
C45      C      0.498570000000     0.412390000000     0.497470000000     0.369681   
C46      C      0.584560000000     0.498960000000     0.497810000000     0.392523   
C47      C      0.498370000000     0.584590000000     0.498650000000     0.369145   
C48      C      0.498380000000     0.498790000000     0.411970000000     0.392878   
C49      C      0.518020000000     0.477970000000     0.664800000000    -0.215737   
C50      C      0.478740000000     0.517930000000     0.864230000000     0.0726797  
C51      C      0.517410000000     0.479050000000     0.864150000000     0.0727489  
C52      C      0.478320000000     0.518150000000     0.831910000000    -0.0886345  
C53      C      0.495720000000     0.526040000000     0.764220000000    -0.0380559  
C54      C      0.495810000000     0.525890000000     0.731890000000    -0.0226884  
C55      C      0.497720000000     0.498190000000     0.780910000000    -0.000117884
C56      C      0.517560000000     0.478670000000     0.831850000000    -0.0885067  
C57      C      0.497900000000     0.497870000000     0.715480000000    -0.0250705  
C58      C      0.478690000000     0.517260000000     0.664250000000    -0.123797   
C59      C      0.499800000000     0.470020000000     0.732170000000    -0.0222215  
C60      C      0.479280000000     0.516800000000     0.631960000000     0.0943965  
C61      C      0.518140000000     0.478040000000     0.632460000000     0.413397   
C62      C      0.499700000000     0.470180000000     0.764500000000    -0.0375123  
C63      C      0.497860000000     0.498350000000     0.815300000000     0.0496254  
C64      C      0.498190000000     0.497700000000     0.681100000000     0.108975   
C65      C      0.517950000000     0.517820000000     0.331300000000    -0.214303   
C66      C      0.479030000000     0.477850000000     0.131910000000     0.0735363  
C67      C      0.517880000000     0.516560000000     0.132090000000     0.0743792  
C68      C      0.478680000000     0.477460000000     0.164220000000    -0.0880314  
C69      C      0.470420000000     0.495000000000     0.231810000000    -0.0373669  
C70      C      0.470400000000     0.495180000000     0.264150000000    -0.0221078  
C71      C      0.498360000000     0.496950000000     0.215270000000     0.000765079
C72      C      0.518150000000     0.516720000000     0.164400000000    -0.0864767  
C73      C      0.498320000000     0.497340000000     0.280690000000    -0.0241886  
C74      C      0.478720000000     0.478430000000     0.331980000000    -0.123309   
C75      C      0.526260000000     0.499160000000     0.264150000000    -0.0214168  
C76      C      0.479130000000     0.479180000000     0.364270000000     0.0953612  
C77      C      0.517840000000     0.518100000000     0.363630000000     0.415314   
C78      C      0.526280000000     0.498970000000     0.231830000000    -0.0365574  
C79      C      0.498400000000     0.497030000000     0.180890000000     0.0503396  
C80      C      0.498310000000     0.497850000000     0.315070000000     0.109808   
C81      C      0.478950000000     0.831620000000     0.476960000000    -0.21455    
C82      C      0.479820000000     0.632450000000     0.518880000000     0.0741202  
C83      C      0.517110000000     0.632440000000     0.478660000000     0.0756008  
C84      C      0.479610000000     0.664780000000     0.519220000000    -0.0874964  
C85      C      0.498150000000     0.732430000000     0.526400000000    -0.0376089  
C86      C      0.498120000000     0.764780000000     0.526150000000    -0.0217837  
C87      C      0.498350000000     0.715690000000     0.498510000000     0.00131979 
C88      C      0.517360000000     0.664740000000     0.478300000000    -0.084947   
C89      C      0.498090000000     0.781090000000     0.498000000000    -0.0245031  
C90      C      0.516440000000     0.832390000000     0.518010000000    -0.123527   
C91      C      0.498240000000     0.764330000000     0.470130000000    -0.0207477  
C92      C      0.516010000000     0.864680000000     0.517220000000     0.0956054  
C93      C      0.478880000000     0.863950000000     0.476790000000     0.415761   
C94      C      0.498430000000     0.732010000000     0.470380000000    -0.0366749  
C95      C      0.498460000000     0.681320000000     0.498720000000     0.0504648  
C96      C      0.497820000000     0.815450000000     0.497680000000     0.110269   
C97      C      0.476680000000     0.165200000000     0.515890000000    -0.215088   
C98      C      0.518620000000     0.364380000000     0.515790000000     0.0746085  
C99      C      0.478390000000     0.364690000000     0.478530000000     0.0738789  
C100     C      0.518870000000     0.332060000000     0.515860000000    -0.0866026  
C101     C      0.525970000000     0.264540000000     0.496980000000    -0.0371138  
C102     C      0.525730000000     0.232200000000     0.496910000000    -0.0219211  
C103     C      0.498090000000     0.281280000000     0.496880000000     0.000629799
C104     C      0.477930000000     0.332380000000     0.478150000000    -0.0879955  
C105     C      0.497610000000     0.215880000000     0.496900000000    -0.0241873  
C106     C      0.517690000000     0.164690000000     0.478350000000    -0.121693   
C107     C      0.469730000000     0.232620000000     0.496840000000    -0.0217523  
C108     C      0.517050000000     0.132390000000     0.478720000000     0.0960519  
C109     C      0.476660000000     0.132870000000     0.515900000000     0.414189   
C110     C      0.469970000000     0.264950000000     0.496750000000    -0.0368896  
C111     C      0.498320000000     0.315650000000     0.496940000000     0.0503807  
C112     C      0.497330000000     0.181500000000     0.497040000000     0.109618   
C113     C      0.518650000000     0.664670000000     0.018330000000    -0.214538   
C114     C      0.479170000000     0.863980000000     0.978100000000     0.0752851  
C115     C      0.517810000000     0.864380000000     0.017020000000     0.0752574  
C116     C      0.479000000000     0.831670000000     0.978000000000    -0.0845122  
C117     C      0.470890000000     0.764270000000     0.996010000000    -0.037619   
C118     C      0.470960000000     0.731940000000     0.996140000000    -0.0214717  
C119     C      0.498770000000     0.780900000000     0.998050000000     0.000534136
C120     C      0.518250000000     0.832070000000     0.017480000000    -0.0858819  
C121     C      0.498920000000     0.715460000000     0.998320000000    -0.0258556  
C122     C      0.479430000000     0.664320000000     0.978930000000    -0.123632   
C123     C      0.526800000000     0.732090000000     0.000360000000    -0.020344   
C124     C      0.479840000000     0.632030000000     0.979410000000     0.0941897  
C125     C      0.518530000000     0.632330000000     0.018340000000     0.414251   
C126     C      0.526720000000     0.764430000000     0.000230000000    -0.0361825  
C127     C      0.498680000000     0.815290000000     0.997850000000     0.0492315  
C128     C      0.499000000000     0.681070000000     0.998520000000     0.108392   
C129     C      0.476850000000     0.164680000000     0.016120000000    -0.212588   
C130     C      0.517440000000     0.364130000000     0.977840000000     0.0723517  
C131     C      0.478620000000     0.364040000000     0.016590000000     0.0737008  
C132     C      0.517600000000     0.331820000000     0.977360000000    -0.0882237  
C133     C      0.499730000000     0.264340000000     0.968830000000    -0.0371384  
C134     C      0.499470000000     0.232000000000     0.968720000000    -0.0222909  
C135     C      0.497760000000     0.280810000000     0.996810000000    -0.000793394
C136     C      0.478230000000     0.331740000000     0.016710000000    -0.0871953  
C137     C      0.497230000000     0.215390000000     0.996600000000    -0.0245151  
C138     C      0.516240000000     0.164180000000     0.976890000000    -0.121088   
C139     C      0.495360000000     0.231870000000     0.024580000000    -0.0205989  
C140     C      0.515610000000     0.131890000000     0.977280000000     0.0966273  
C141     C      0.476690000000     0.132360000000     0.015990000000     0.416971   
C142     C      0.495620000000     0.264190000000     0.024690000000    -0.0354883  
C143     C      0.497870000000     0.315200000000     0.996950000000     0.0489442  
C144     C      0.496770000000     0.181000000000     0.996510000000     0.108932   
C145     C      0.476820000000     0.978960000000     0.830000000000    -0.213621   
C146     C      0.517690000000     0.980190000000     0.630780000000     0.0736422  
C147     C      0.477290000000     0.017280000000     0.630690000000     0.0753562  
C148     C      0.518070000000     0.980080000000     0.663100000000    -0.0876798  
C149     C      0.525370000000     0.999010000000     0.730590000000    -0.0372986  
C150     C      0.525270000000     0.998960000000     0.762930000000    -0.0224071  
C151     C      0.497420000000     0.998870000000     0.713980000000     0.000758854
C152     C      0.476950000000     0.017600000000     0.663000000000    -0.0854492  
C153     C      0.497220000000     0.998580000000     0.779370000000    -0.0236985  
C154     C      0.517200000000     0.017180000000     0.830570000000    -0.120408   
C155     C      0.469270000000     0.998410000000     0.762750000000    -0.0216807  
C156     C      0.516650000000     0.016660000000     0.862870000000     0.0968757  
C157     C      0.476910000000     0.978790000000     0.862330000000     0.415515   
C158     C      0.469370000000     0.998640000000     0.730420000000    -0.0365895  
C159     C      0.497500000000     0.998870000000     0.679610000000     0.049409   
C160     C      0.497090000000     0.998250000000     0.813730000000     0.108702   
C161     C      0.477020000000     0.017420000000     0.163520000000    -0.213235   
C162     C      0.517970000000     0.017690000000     0.362900000000     0.0762618  
C163     C      0.478450000000     0.979670000000     0.362820000000     0.0761907  
C164     C      0.518430000000     0.017870000000     0.330580000000    -0.0842686  
C165     C      0.526230000000     0.999210000000     0.262990000000    -0.0373965  
C166     C      0.526130000000     0.999130000000     0.230650000000    -0.021117   
C167     C      0.498280000000     0.998660000000     0.279610000000     0.00238602 
C168     C      0.478200000000     0.979390000000     0.330510000000    -0.0838485  
C169     C      0.498070000000     0.998700000000     0.214210000000    -0.0240863  
C170     C      0.518480000000     0.980380000000     0.163060000000    -0.122843   
C171     C      0.470130000000     0.998210000000     0.230850000000    -0.020501   
C172     C      0.517790000000     0.980650000000     0.130760000000     0.0957823  
C173     C      0.476970000000     0.017350000000     0.131190000000     0.416726   
C174     C      0.470240000000     0.998120000000     0.263170000000    -0.0366174  
C175     C      0.498340000000     0.998620000000     0.313980000000     0.049752   
C176     C      0.497890000000     0.998840000000     0.179850000000     0.10951    
C177     C      0.665120000000     0.518740000000     0.478610000000    -0.214039   
C178     C      0.864470000000     0.479310000000     0.518380000000     0.0739612  
C179     C      0.864520000000     0.517850000000     0.479350000000     0.0734819  
C180     C      0.832170000000     0.479090000000     0.518700000000    -0.0866073  
C181     C      0.764630000000     0.470890000000     0.501030000000    -0.0372971  
C182     C      0.732300000000     0.470970000000     0.500910000000    -0.021588   
C183     C      0.781240000000     0.498780000000     0.498960000000     0.000814081
C184     C      0.832220000000     0.518240000000     0.479120000000    -0.0879344  
C185     C      0.715830000000     0.498930000000     0.498740000000    -0.0238744  
C186     C      0.664620000000     0.479370000000     0.517870000000    -0.121622   
C187     C      0.732450000000     0.526820000000     0.496750000000    -0.0214549  
C188     C      0.632340000000     0.479770000000     0.517250000000     0.096398   
C189     C      0.632800000000     0.518630000000     0.478480000000     0.415636   
C190     C      0.764770000000     0.526750000000     0.496850000000    -0.0369868  
C191     C      0.815620000000     0.498710000000     0.498930000000     0.0500812  
C192     C      0.681440000000     0.499010000000     0.498420000000     0.109908   
C193     C      0.165150000000     0.477910000000     0.478400000000    -0.215531   
C194     C      0.364540000000     0.517860000000     0.517850000000     0.0730745  
C195     C      0.364560000000     0.479280000000     0.478860000000     0.0731324  
C196     C      0.332230000000     0.518080000000     0.518190000000    -0.0884231  
C197     C      0.264590000000     0.526080000000     0.500650000000    -0.0379639  
C198     C      0.232260000000     0.525910000000     0.500560000000    -0.022507   
C199     C      0.281280000000     0.498250000000     0.498550000000     8.03382e-05
C200     C      0.332260000000     0.478880000000     0.478650000000    -0.0883191  
C201     C      0.215860000000     0.497900000000     0.498390000000    -0.0249479  
C202     C      0.164640000000     0.517300000000     0.517640000000    -0.123765   
C203     C      0.232570000000     0.470060000000     0.496380000000    -0.0221029  
C204     C      0.132360000000     0.516770000000     0.517140000000     0.0946095  
C205     C      0.132820000000     0.477900000000     0.478380000000     0.413168   
C206     C      0.264890000000     0.470240000000     0.496460000000    -0.0374527  
C207     C      0.315670000000     0.498410000000     0.498470000000     0.0498064  
C208     C      0.181470000000     0.497700000000     0.498150000000     0.109017   
C209     C      0.831850000000     0.477930000000     0.977160000000    -0.21503    
C210     C      0.632450000000     0.516920000000     0.017360000000     0.0746759  
C211     C      0.632300000000     0.478490000000     0.978230000000     0.0730912  
C212     C      0.664750000000     0.517190000000     0.017550000000    -0.085372   
C213     C      0.732310000000     0.499510000000     0.025340000000    -0.0361592  
C214     C      0.764630000000     0.499470000000     0.025200000000    -0.0209072  
C215     C      0.715640000000     0.497720000000     0.997460000000    -0.000285237
C216     C      0.664600000000     0.478210000000     0.977800000000    -0.0878236  
C217     C      0.781060000000     0.497650000000     0.997180000000    -0.0251851  
C218     C      0.832170000000     0.516930000000     0.016800000000    -0.120523   
C219     C      0.764390000000     0.495890000000     0.969310000000    -0.0217528  
C220     C      0.864450000000     0.516470000000     0.016390000000     0.0967041  
C221     C      0.864180000000     0.477950000000     0.977280000000     0.413642   
C222     C      0.732070000000     0.495920000000     0.969440000000    -0.037044   
C223     C      0.681250000000     0.497710000000     0.997600000000     0.0489818  
C224     C      0.815440000000     0.497510000000     0.997040000000     0.108383   
C225     C      0.165150000000     0.477950000000     0.019290000000    -0.213124   
C226     C      0.364450000000     0.517980000000     0.979300000000     0.072516   
C227     C      0.364630000000     0.478830000000     0.017710000000     0.0737273  
C228     C      0.332140000000     0.518250000000     0.979140000000    -0.088273   
C229     C      0.264600000000     0.526100000000     0.997080000000    -0.0373924  
C230     C      0.232280000000     0.525980000000     0.997330000000    -0.0224701  
C231     C      0.281270000000     0.498220000000     0.998810000000    -0.000913327
C232     C      0.332340000000     0.478490000000     0.018120000000    -0.0871996  
C233     C      0.215850000000     0.497970000000     0.999310000000    -0.0249805  
C234     C      0.164640000000     0.517500000000     0.980220000000    -0.120971   
C235     C      0.232520000000     0.470090000000     0.000990000000    -0.0209356  
C236     C      0.132360000000     0.516970000000     0.980700000000     0.094391   
C237     C      0.132810000000     0.477940000000     0.019310000000     0.41369    
C238     C      0.264840000000     0.470220000000     0.000740000000    -0.0359606  
C239     C      0.315660000000     0.498330000000     0.998690000000     0.0487974  
C240     C      0.181460000000     0.497820000000     0.999620000000     0.107817   
C241     C      0.019830000000     0.518000000000     0.831960000000    -0.216345   
C242     C      0.979640000000     0.479170000000     0.632510000000     0.0737095  
C243     C      0.018770000000     0.517590000000     0.632250000000     0.0740194  
C244     C      0.979500000000     0.478930000000     0.664810000000    -0.0865692  
C245     C      0.971750000000     0.496650000000     0.732320000000    -0.0379089  
C246     C      0.971890000000     0.496620000000     0.764650000000    -0.0211976  
C247     C      0.999610000000     0.498470000000     0.715650000000     1.68012e-05
C248     C      0.019240000000     0.517910000000     0.664550000000    -0.0868489  
C249     C      0.999900000000     0.498420000000     0.781070000000    -0.0274605  
C250     C      0.980370000000     0.478840000000     0.832090000000    -0.123864   
C251     C      0.027770000000     0.500260000000     0.764410000000    -0.0200232  
C252     C      0.980750000000     0.479160000000     0.864380000000     0.0954313  
C253     C      0.019690000000     0.517860000000     0.864290000000     0.414517   
C254     C      0.027630000000     0.500280000000     0.732070000000    -0.0367067  
C255     C      0.999450000000     0.498440000000     0.681260000000     0.0488287  
C256     C      0.000040000000     0.498410000000     0.815460000000     0.112601   
C257     C      0.977460000000     0.516850000000     0.165150000000    -0.214964   
C258     C      0.017030000000     0.477570000000     0.364650000000     0.0750614  
C259     C      0.978730000000     0.516830000000     0.364600000000     0.0735066  
C260     C      0.017190000000     0.477110000000     0.332340000000    -0.0853433  
C261     C      0.025340000000     0.494430000000     0.264680000000    -0.0362197  
C262     C      0.025200000000     0.494430000000     0.232340000000    -0.0208029  
C263     C      0.997510000000     0.496750000000     0.281350000000    -2.10686e-05
C264     C      0.978280000000     0.516920000000     0.332290000000    -0.0875242  
C265     C      0.997220000000     0.496740000000     0.215910000000    -0.0249795  
C266     C      0.016580000000     0.477350000000     0.164710000000    -0.120449   
C267     C      0.969390000000     0.498970000000     0.232590000000    -0.0215984  
C268     C      0.016180000000     0.477920000000     0.132410000000     0.0968678  
C269     C      0.977570000000     0.516930000000     0.132820000000     0.414054   
C270     C      0.969530000000     0.498990000000     0.264920000000    -0.037005   
C271     C      0.997660000000     0.496920000000     0.315740000000     0.0492796  
C272     C      0.997080000000     0.496960000000     0.181510000000     0.108617   
C273     C      0.018670000000     0.831300000000     0.479700000000    -0.214486   
C274     C      0.978580000000     0.631960000000     0.479930000000     0.072577   
C275     C      0.018790000000     0.631850000000     0.517230000000     0.0734523  
C276     C      0.978110000000     0.664270000000     0.479910000000    -0.0883362  
C277     C      0.970440000000     0.731640000000     0.499110000000    -0.0379576  
C278     C      0.970390000000     0.763980000000     0.499220000000    -0.0225962  
C279     C      0.998460000000     0.715140000000     0.499050000000    -0.00100118 
C280     C      0.019050000000     0.664170000000     0.517650000000    -0.087507   
C281     C      0.998380000000     0.780540000000     0.499070000000    -0.0259402  
C282     C      0.978060000000     0.831620000000     0.517670000000    -0.123737   
C283     C      0.026400000000     0.764040000000     0.499000000000    -0.0211537  
C284     C      0.978450000000     0.863920000000     0.517190000000     0.0941589  
C285     C      0.018420000000     0.863630000000     0.479570000000     0.413913   
C286     C      0.026440000000     0.731710000000     0.499070000000    -0.0363552  
C287     C      0.998530000000     0.680780000000     0.498890000000     0.0487377  
C288     C      0.998360000000     0.814910000000     0.498830000000     0.1081     
C289     C      0.977390000000     0.331340000000     0.518380000000    -0.215316   
C290     C      0.017730000000     0.131850000000     0.518020000000     0.0740713  
C291     C      0.977500000000     0.131960000000     0.480740000000     0.0739754  
C292     C      0.018190000000     0.164170000000     0.518210000000    -0.0868895  
C293     C      0.025810000000     0.231660000000     0.499330000000    -0.0363311  
C294     C      0.025820000000     0.264000000000     0.499210000000    -0.0212145  
C295     C      0.997800000000     0.215140000000     0.499340000000    -0.000351306
C296     C      0.977240000000     0.164260000000     0.480500000000    -0.086497   
C297     C      0.997820000000     0.280530000000     0.499310000000    -0.0253755  
C298     C      0.018090000000     0.331550000000     0.480510000000    -0.120824   
C299     C      0.969810000000     0.264000000000     0.499380000000    -0.0217224  
C300     C      0.017600000000     0.363850000000     0.480780000000     0.0962063  
C301     C      0.977530000000     0.363670000000     0.518300000000     0.413424   
C302     C      0.969800000000     0.231680000000     0.499320000000    -0.0370381  
C303     C      0.997760000000     0.180780000000     0.499340000000     0.0491147  
C304     C      0.997790000000     0.314890000000     0.499400000000     0.108422   
C305     C      0.664360000000     0.017860000000     0.477930000000    -0.214466   
C306     C      0.863560000000     0.977680000000     0.517750000000     0.072767   
C307     C      0.863550000000     0.017000000000     0.479510000000     0.0744681  
C308     C      0.831250000000     0.977240000000     0.517890000000    -0.0878054  
C309     C      0.763550000000     0.994520000000     0.525920000000    -0.0383701  
C310     C      0.731220000000     0.994650000000     0.525700000000    -0.0226569  
C311     C      0.780290000000     0.996940000000     0.498140000000     0.00107117 
C312     C      0.831260000000     0.017130000000     0.479040000000    -0.0853969  
C313     C      0.714880000000     0.997220000000     0.497690000000    -0.0244847  
C314     C      0.663490000000     0.977990000000     0.516670000000    -0.123282   
C315     C      0.731630000000     0.999510000000     0.469900000000    -0.0225192  
C316     C      0.631210000000     0.978720000000     0.516080000000     0.094388   
C317     C      0.632040000000     0.018110000000     0.477860000000     0.414067   
C318     C      0.763950000000     0.999370000000     0.470120000000    -0.0383596  
C319     C      0.814680000000     0.997090000000     0.498370000000     0.0484543  
C320     C      0.680490000000     0.997680000000     0.497440000000     0.108017   
C321     C      0.330780000000     0.978440000000     0.476680000000    -0.213475   
C322     C      0.131490000000     0.017310000000     0.517500000000     0.0742395  
C323     C      0.131280000000     0.979120000000     0.478130000000     0.0743979  
C324     C      0.163790000000     0.017630000000     0.517590000000    -0.086681   
C325     C      0.231380000000     0.999990000000     0.525120000000    -0.0380637  
C326     C      0.263710000000     0.999940000000     0.524910000000    -0.0227427  
C327     C      0.214650000000     0.998300000000     0.497280000000     0.00142442 
C328     C      0.163580000000     0.978880000000     0.477610000000    -0.0859834  
C329     C      0.280070000000     0.998190000000     0.496860000000    -0.0231526  
C330     C      0.331250000000     0.017400000000     0.516360000000    -0.120204   
C331     C      0.263340000000     0.996550000000     0.469010000000    -0.0212547  
C332     C      0.363540000000     0.016950000000     0.515820000000     0.0970922  
C333     C      0.363110000000     0.978450000000     0.476680000000     0.415712   
C334     C      0.231020000000     0.996600000000     0.469220000000    -0.036567   
C335     C      0.180270000000     0.998280000000     0.497500000000     0.049166   
C336     C      0.314450000000     0.998020000000     0.496630000000     0.10879    
C337     C      0.976740000000     0.830890000000     0.018380000000    -0.213356   
C338     C      0.017890000000     0.631590000000     0.979840000000     0.075535   
C339     C      0.978330000000     0.631380000000     0.017810000000     0.0759027  
C340     C      0.018020000000     0.663900000000     0.979550000000    -0.0849116  
C341     C      0.000080000000     0.731330000000     0.970990000000    -0.0334427  
C342     C      0.999830000000     0.763660000000     0.971020000000    -0.0257125  
C343     C      0.997700000000     0.714750000000     0.998880000000    -0.00175472 
C344     C      0.977900000000     0.663680000000     0.018140000000    -0.0847061  
C345     C      0.997200000000     0.780170000000     0.998920000000    -0.0233786  
C346     C      0.016590000000     0.831380000000     0.979620000000    -0.120024   
C347     C      0.994870000000     0.763580000000     0.026810000000    -0.0215492  
C348     C      0.016010000000     0.863660000000     0.980040000000     0.0959538  
C349     C      0.976650000000     0.863220000000     0.018300000000     0.414274   
C350     C      0.995110000000     0.731250000000     0.026780000000    -0.0348637  
C351     C      0.997880000000     0.680370000000     0.998860000000     0.0488204  
C352     C      0.996840000000     0.814560000000     0.998960000000     0.106468   
C353     C      0.017390000000     0.164270000000     0.017960000000    -0.213099   
C354     C      0.979200000000     0.363840000000     0.978110000000     0.0743177  
C355     C      0.017220000000     0.363570000000     0.017630000000     0.076565   
C356     C      0.978750000000     0.331530000000     0.977740000000    -0.0854605  
C357     C      0.995990000000     0.263820000000     0.969890000000    -0.0375584  
C358     C      0.995930000000     0.231480000000     0.969940000000    -0.0219494  
C359     C      0.997680000000     0.280420000000     0.997820000000     0.000618257
C360     C      0.017330000000     0.331260000000     0.017870000000    -0.0833644  
C361     C      0.997570000000     0.214990000000     0.997920000000    -0.0253552  
C362     C      0.978510000000     0.163780000000     0.978220000000    -0.122921   
C363     C      0.999140000000     0.231580000000     0.025860000000    -0.020494   
C364     C      0.978980000000     0.131480000000     0.978760000000     0.094174   
C365     C      0.017400000000     0.131950000000     0.017960000000     0.415139   
C366     C      0.999190000000     0.263900000000     0.025810000000    -0.0359936  
C367     C      0.997930000000     0.314810000000     0.997800000000     0.0480277  
C368     C      0.997810000000     0.180600000000     0.998010000000     0.107096   
C369     C      0.663880000000     0.018770000000     0.977050000000    -0.21411    
C370     C      0.863130000000     0.979410000000     0.017780000000     0.0747599  
C371     C      0.863540000000     0.017940000000     0.978760000000     0.0739419  
C372     C      0.830830000000     0.979280000000     0.017900000000    -0.0850394  
C373     C      0.763290000000     0.997110000000     0.025530000000    -0.0365332  
C374     C      0.730970000000     0.997160000000     0.025290000000    -0.0210223  
C375     C      0.780060000000     0.998980000000     0.997720000000    -0.000979918
C376     C      0.831240000000     0.018370000000     0.978270000000    -0.0866281  
C377     C      0.714640000000     0.999090000000     0.997220000000    -0.0263711  
C378     C      0.663460000000     0.979670000000     0.016580000000    -0.121989   
C379     C      0.731410000000     0.000960000000     0.969410000000    -0.0209766  
C380     C      0.631180000000     0.980030000000     0.015990000000     0.0955201  
C381     C      0.631550000000     0.018660000000     0.976990000000     0.413736   
C382     C      0.763730000000     0.000910000000     0.969660000000    -0.0363292  
C383     C      0.814450000000     0.998890000000     0.997980000000     0.0480311  
C384     C      0.680250000000     0.999180000000     0.996950000000     0.10724    
C385     C      0.330470000000     0.976800000000     0.978090000000    -0.212908   
C386     C      0.131200000000     0.016270000000     0.018460000000     0.0765948  
C387     C      0.131050000000     0.977240000000     0.979920000000     0.0748459  
C388     C      0.163510000000     0.016500000000     0.018690000000    -0.0836613  
C389     C      0.230960000000     0.024560000000     0.000690000000    -0.0344023  
C390     C      0.263280000000     0.024540000000     0.000390000000    -0.0189884  
C391     C      0.214390000000     0.996620000000     0.998960000000     6.65712e-05
C392     C      0.163350000000     0.976850000000     0.979600000000    -0.0854777  
C393     C      0.279800000000     0.996600000000     0.998350000000    -0.0245796  
C394     C      0.331030000000     0.016370000000     0.017150000000    -0.117115   
C395     C      0.263220000000     0.968660000000     0.996690000000    -0.0207443  
C396     C      0.363310000000     0.016060000000     0.016400000000     0.0994457  
C397     C      0.362790000000     0.977010000000     0.977810000000     0.41614    
C398     C      0.230900000000     0.968670000000     0.996990000000    -0.0361787  
C399     C      0.180000000000     0.996640000000     0.999100000000     0.0489814  
C400     C      0.314180000000     0.996580000000     0.997880000000     0.108552   
C401     C      0.018000000000     0.978220000000     0.832040000000    -0.214311   
C402     C      0.977440000000     0.978910000000     0.632660000000     0.0718675  
C403     C      0.017480000000     0.016380000000     0.632690000000     0.073981   
C404     C      0.977030000000     0.978730000000     0.664980000000    -0.0880369  
C405     C      0.969440000000     0.997590000000     0.732490000000    -0.0383144  
C406     C      0.969490000000     0.997610000000     0.764830000000    -0.0228178  
C407     C      0.997420000000     0.997670000000     0.715920000000    -0.000833299
C408     C      0.017790000000     0.016630000000     0.665000000000    -0.0863023  
C409     C      0.997520000000     0.997510000000     0.781320000000    -0.0258915  
C410     C      0.977340000000     0.016140000000     0.832440000000    -0.122476   
C411     C      0.025490000000     0.997540000000     0.764740000000    -0.0212548  
C412     C      0.977870000000     0.015740000000     0.864740000000     0.0948191  
C413     C      0.017880000000     0.978160000000     0.864370000000     0.413977   
C414     C      0.025440000000     0.997700000000     0.732400000000    -0.0366982  
C415     C      0.997390000000     0.997690000000     0.681550000000     0.0474347  
C416     C      0.997600000000     0.997290000000     0.815680000000     0.106984   
C417     C      0.978050000000     0.019050000000     0.332080000000    -0.213889   
C418     C      0.978110000000     0.977980000000     0.132760000000     0.0740273  
C419     C      0.015950000000     0.017680000000     0.132680000000     0.0759544  
C420     C      0.977910000000     0.977670000000     0.165070000000    -0.0855132  
C421     C      0.996690000000     0.970060000000     0.232580000000    -0.0374511  
C422     C      0.996740000000     0.970180000000     0.264920000000    -0.0217042  
C423     C      0.997050000000     0.998010000000     0.215950000000     0.000805185
C424     C      0.016200000000     0.018080000000     0.164990000000    -0.0837137  
C425     C      0.996970000000     0.998250000000     0.281340000000    -0.0249183  
C426     C      0.015480000000     0.977940000000     0.332440000000    -0.120382   
C427     C      0.997260000000     0.026200000000     0.264710000000    -0.0205578  
C428     C      0.015160000000     0.978500000000     0.364730000000     0.0960949  
C429     C      0.978070000000     0.018970000000     0.364420000000     0.414243   
C430     C      0.997390000000     0.026080000000     0.232380000000    -0.036385   
C431     C      0.997060000000     0.997900000000     0.181590000000     0.0481706  
C432     C      0.996830000000     0.998400000000     0.315710000000     0.107537   
F1       F      0.538050000000     0.458420000000     0.618060000000    -0.446704   
F2       F      0.537410000000     0.538130000000     0.377940000000    -0.435447   
F3       F      0.459950000000     0.878220000000     0.456130000000    -0.435328   
F4       F      0.456080000000     0.118460000000     0.534810000000    -0.445958   
F5       F      0.538090000000     0.617850000000     0.038240000000    -0.446551   
F6       F      0.456710000000     0.117950000000     0.035540000000    -0.434828   
F7       F      0.456690000000     0.959460000000     0.876700000000    -0.434924   
F8       F      0.456150000000     0.035990000000     0.116770000000    -0.434982   
F9       F      0.618400000000     0.538260000000     0.458570000000    -0.435482   
F10      F      0.118410000000     0.458200000000     0.458550000000    -0.446723   
F11      F      0.878690000000     0.458270000000     0.957500000000    -0.446479   
F12      F      0.118390000000     0.458160000000     0.039050000000    -0.445691   
F13      F      0.039370000000     0.537560000000     0.878900000000    -0.446499   
F14      F      0.958060000000     0.536920000000     0.118380000000    -0.44604    
F15      F      0.038690000000     0.878120000000     0.460380000000    -0.446176   
F16      F      0.957170000000     0.378230000000     0.537340000000    -0.446738   
F17      F      0.617820000000     0.038370000000     0.458450000000    -0.446071   
F18      F      0.377540000000     0.958780000000     0.456840000000    -0.435233   
F19      F      0.956470000000     0.877640000000     0.037630000000    -0.446289   
F20      F      0.037060000000     0.117550000000     0.037830000000    -0.445945   
F21      F      0.617090000000     0.038360000000     0.957190000000    -0.446257   
F22      F      0.377180000000     0.957320000000     0.957950000000    -0.434745   
F23      F      0.038230000000     0.959040000000     0.878830000000    -0.446171   
F24      F      0.959230000000     0.039560000000     0.378900000000    -0.446284   
H1       H      0.533120000000     0.463460000000     0.875960000000     0.0325904  
H2       H      0.463630000000     0.532350000000     0.620020000000     0.0277333  
H3       H      0.500760000000     0.448280000000     0.776640000000     0.0439784  
H4       H      0.494780000000     0.547780000000     0.719740000000     0.0391069  
H5       H      0.462690000000     0.532630000000     0.675910000000     0.0649419  
H6       H      0.494630000000     0.548050000000     0.776150000000     0.0431768  
H7       H      0.533780000000     0.462760000000     0.676970000000     0.118993   
H8       H      0.533360000000     0.463270000000     0.819960000000     0.0570202  
H9       H      0.462450000000     0.533490000000     0.820060000000     0.0561095  
H10      H      0.500920000000     0.448010000000     0.720250000000     0.0433813  
H11      H      0.463130000000     0.533560000000     0.876120000000     0.0323105  
H12      H      0.533490000000     0.532270000000     0.120320000000     0.0412604  
H13      H      0.463600000000     0.463570000000     0.376280000000     0.0282023  
H14      H      0.548230000000     0.500000000000     0.219800000000     0.0458178  
H15      H      0.448450000000     0.494190000000     0.276190000000     0.0398921  
H16      H      0.463390000000     0.462360000000     0.320370000000     0.0657314  
H17      H      0.448490000000     0.493870000000     0.219760000000     0.044159   
H18      H      0.533160000000     0.533540000000     0.319070000000     0.122193   
H19      H      0.533480000000     0.532540000000     0.176340000000     0.0606255  
H20      H      0.463310000000     0.461580000000     0.176020000000     0.0567817  
H21      H      0.548190000000     0.500330000000     0.276190000000     0.0458488  
H22      H      0.463450000000     0.462240000000     0.119980000000     0.0328051  
H23      H      0.532180000000     0.620590000000     0.462490000000     0.049261   
H24      H      0.530960000000     0.876730000000     0.533370000000     0.0282386  
H25      H      0.498290000000     0.719780000000     0.448510000000     0.047689   
H26      H      0.497730000000     0.777020000000     0.548010000000     0.0399621  
H27      H      0.531640000000     0.820790000000     0.534200000000     0.0660426  
H28      H      0.498360000000     0.720530000000     0.548450000000     0.0440165  
H29      H      0.463920000000     0.819340000000     0.461100000000     0.122599   
H30      H      0.532570000000     0.676620000000     0.462330000000     0.0625623  
H31      H      0.464400000000     0.676700000000     0.535170000000     0.0573613  
H32      H      0.498520000000     0.776220000000     0.448070000000     0.0457267  
H33      H      0.464740000000     0.620600000000     0.535040000000     0.0329048  
H34      H      0.462240000000     0.376660000000     0.463520000000     0.0330543  
H35      H      0.533230000000     0.120460000000     0.463720000000     0.0368725  
H36      H      0.448100000000     0.277170000000     0.496960000000     0.0448798  
H37      H      0.547600000000     0.219970000000     0.497230000000     0.0416885  
H38      H      0.533820000000     0.176390000000     0.463150000000     0.0687825  
H39      H      0.548020000000     0.276440000000     0.496790000000     0.0450709  
H40      H      0.460790000000     0.177400000000     0.530960000000     0.119667   
H41      H      0.461900000000     0.320610000000     0.462890000000     0.0573294  
H42      H      0.534800000000     0.320030000000     0.531010000000     0.0599593  
H43      H      0.447680000000     0.220720000000     0.496540000000     0.0441563  
H44      H      0.534840000000     0.376100000000     0.530920000000     0.0408192  
H45      H      0.533260000000     0.876400000000     0.032690000000     0.0337503  
H46      H      0.464300000000     0.620150000000     0.963690000000     0.0278249  
H47      H      0.548630000000     0.776520000000     0.001360000000     0.0451144  
H48      H      0.449050000000     0.719840000000     0.995020000000     0.0400763  
H49      H      0.464120000000     0.676050000000     0.962940000000     0.0657017  
H50      H      0.448920000000     0.776240000000     0.994780000000     0.0461488  
H51      H      0.533850000000     0.676760000000     0.034160000000     0.119466   
H52      H      0.533580000000     0.820340000000     0.033460000000     0.0578853  
H53      H      0.463780000000     0.819650000000     0.962140000000     0.0615817  
H54      H      0.548770000000     0.720120000000     0.001590000000     0.0438299  
H55      H      0.463590000000     0.875660000000     0.962280000000     0.0489666  
H56      H      0.462950000000     0.375860000000     0.032210000000     0.0328076  
H57      H      0.531270000000     0.119950000000     0.961750000000     0.0368255  
H58      H      0.494580000000     0.276150000000     0.046680000000     0.0450747  
H59      H      0.500500000000     0.220030000000     0.946740000000     0.0406668  
H60      H      0.532280000000     0.175850000000     0.961580000000     0.0683694  
H61      H      0.500950000000     0.276440000000     0.946920000000     0.0436809  
H62      H      0.461080000000     0.176850000000     0.031340000000     0.121909   
H63      H      0.462290000000     0.319840000000     0.031950000000     0.0577017  
H64      H      0.533450000000     0.319970000000     0.961980000000     0.056639   
H65      H      0.494130000000     0.219770000000     0.046490000000     0.0459384  
H66      H      0.533180000000     0.376010000000     0.962360000000     0.0324818  
H67      H      0.461030000000     0.032230000000     0.618810000000     0.0410315  
H68      H      0.532610000000     0.031870000000     0.874840000000     0.0366767  
H69      H      0.447450000000     0.998250000000     0.718280000000     0.0459213  
H70      H      0.547190000000     0.998830000000     0.775080000000     0.0408539  
H71      H      0.533030000000     0.032700000000     0.818900000000     0.0685864  
H72      H      0.547360000000     0.999460000000     0.718590000000     0.0440763  
H73      H      0.461150000000     0.963690000000     0.817770000000     0.121886   
H74      H      0.460890000000     0.032740000000     0.674880000000     0.0601788  
H75      H      0.534120000000     0.964990000000     0.675040000000     0.0571295  
H76      H      0.447280000000     0.998410000000     0.774750000000     0.0460895  
H77      H      0.533930000000     0.965170000000     0.618970000000     0.0330075  
H78      H      0.462500000000     0.964330000000     0.374630000000     0.0499544  
H79      H      0.534130000000     0.965820000000     0.118830000000     0.0289189  
H80      H      0.448320000000     0.997970000000     0.275300000000     0.0480703  
H81      H      0.548030000000     0.999780000000     0.218500000000     0.0408835  
H82      H      0.534800000000     0.965410000000     0.174790000000     0.0667825  
H83      H      0.548220000000     0.999360000000     0.275000000000     0.0460366  
H84      H      0.460970000000     0.032330000000     0.175690000000     0.122883   
H85      H      0.462540000000     0.963880000000     0.318590000000     0.0630109  
H86      H      0.534150000000     0.033340000000     0.318690000000     0.0605321  
H87      H      0.448140000000     0.997580000000     0.218860000000     0.0458862  
H88      H      0.533830000000     0.033070000000     0.374790000000     0.0417721  
H89      H      0.876380000000     0.533290000000     0.463540000000     0.0328759  
H90      H      0.620400000000     0.464170000000     0.532860000000     0.0363794  
H91      H      0.776860000000     0.548660000000     0.495720000000     0.0445678  
H92      H      0.720220000000     0.449040000000     0.502000000000     0.0410901  
H93      H      0.676280000000     0.463990000000     0.533850000000     0.0684228  
H94      H      0.776610000000     0.448920000000     0.502210000000     0.0456491  
H95      H      0.677280000000     0.534000000000     0.462880000000     0.121709   
H96      H      0.820360000000     0.533510000000     0.463170000000     0.0577152  
H97      H      0.820270000000     0.463880000000     0.534680000000     0.0591954  
H98      H      0.720480000000     0.548800000000     0.495550000000     0.0445378  
H99      H      0.876290000000     0.463800000000     0.534150000000     0.0408357  
H100     H      0.376400000000     0.463820000000     0.463050000000     0.0329178  
H101     H      0.120430000000     0.532330000000     0.532790000000     0.0278295  
H102     H      0.277040000000     0.448350000000     0.495320000000     0.0441954  
H103     H      0.220110000000     0.547800000000     0.501660000000     0.0393683  
H104     H      0.176300000000     0.532720000000     0.533580000000     0.0651781  
H105     H      0.276510000000     0.548090000000     0.501830000000     0.0436277  
H106     H      0.177310000000     0.462680000000     0.462640000000     0.118916   
H107     H      0.320400000000     0.463600000000     0.462720000000     0.057288   
H108     H      0.320340000000     0.533290000000     0.534160000000     0.0563536  
H109     H      0.220660000000     0.448050000000     0.495200000000     0.0434531  
H110     H      0.376380000000     0.533380000000     0.533600000000     0.0325914  
H111     H      0.620390000000     0.462940000000     0.962560000000     0.0327822  
H112     H      0.876310000000     0.532030000000     0.032100000000     0.036529   
H113     H      0.719940000000     0.495010000000     0.947540000000     0.0445566  
H114     H      0.776760000000     0.500370000000     0.047110000000     0.0415422  
H115     H      0.820430000000     0.532740000000     0.032290000000     0.0685605  
H116     H      0.720370000000     0.500440000000     0.047350000000     0.0448905  
H117     H      0.819770000000     0.462260000000     0.961790000000     0.118995   
H118     H      0.676410000000     0.462480000000     0.962280000000     0.0571471  
H119     H      0.676680000000     0.532930000000     0.032980000000     0.0594913  
H120     H      0.776330000000     0.494950000000     0.947300000000     0.0436842  
H121     H      0.620660000000     0.532470000000     0.033120000000     0.0408984  
H122     H      0.376540000000     0.463130000000     0.033220000000     0.0328894  
H123     H      0.120430000000     0.532580000000     0.965110000000     0.0366262  
H124     H      0.276950000000     0.448300000000     0.001610000000     0.0445616  
H125     H      0.220150000000     0.547890000000     0.996460000000     0.0402495  
H126     H      0.176300000000     0.533000000000     0.964350000000     0.0677562  
H127     H      0.276550000000     0.548110000000     0.996040000000     0.0436189  
H128     H      0.177310000000     0.462650000000     0.034980000000     0.119124   
H129     H      0.320560000000     0.463010000000     0.033910000000     0.0573922  
H130     H      0.320190000000     0.533710000000     0.963460000000     0.0564727  
H131     H      0.220580000000     0.448090000000     0.002040000000     0.0443299  
H132     H      0.376230000000     0.533700000000     0.963700000000     0.0324578  
H133     H      0.034410000000     0.533130000000     0.620290000000     0.0327343  
H134     H      0.965100000000     0.463490000000     0.876160000000     0.0361823  
H135     H      0.049520000000     0.501230000000     0.719940000000     0.0446109  
H136     H      0.949990000000     0.495670000000     0.776790000000     0.0407622  
H137     H      0.964950000000     0.463010000000     0.820270000000     0.0685449  
H138     H      0.949740000000     0.495720000000     0.720390000000     0.0445038  
H139     H      0.035150000000     0.533780000000     0.819940000000     0.119367   
H140     H      0.034770000000     0.533660000000     0.676330000000     0.0569311  
H141     H      0.964100000000     0.463200000000     0.676780000000     0.0590926  
H142     H      0.049770000000     0.501200000000     0.776350000000     0.0432847  
H143     H      0.963870000000     0.463590000000     0.620770000000     0.0406119  
H144     H      0.963410000000     0.532780000000     0.376430000000     0.0332847  
H145     H      0.031680000000     0.462200000000     0.120500000000     0.0365701  
H146     H      0.947650000000     0.500310000000     0.277050000000     0.0448813  
H147     H      0.047080000000     0.493160000000     0.220210000000     0.0418558  
H148     H      0.031860000000     0.461290000000     0.176400000000     0.0685617  
H149     H      0.047320000000     0.493140000000     0.276620000000     0.0458666  
H150     H      0.962300000000     0.532690000000     0.177280000000     0.119461   
H151     H      0.963100000000     0.532920000000     0.320390000000     0.0576822  
H152     H      0.032280000000     0.461000000000     0.320490000000     0.0595815  
H153     H      0.947400000000     0.500280000000     0.220660000000     0.0440518  
H154     H      0.032460000000     0.461760000000     0.376530000000     0.0411137  
H155     H      0.035000000000     0.619970000000     0.532230000000     0.0325599  
H156     H      0.962340000000     0.875790000000     0.532320000000     0.0277082  
H157     H      0.048410000000     0.719670000000     0.498750000000     0.0445484  
H158     H      0.948430000000     0.776030000000     0.499020000000     0.0393105  
H159     H      0.962180000000     0.819840000000     0.533070000000     0.0651313  
H160     H      0.948500000000     0.719540000000     0.499390000000     0.0431649  
H161     H      0.034490000000     0.819170000000     0.464500000000     0.119519   
H162     H      0.034990000000     0.676030000000     0.532910000000     0.0567388  
H163     H      0.962110000000     0.676220000000     0.464780000000     0.0571275  
H164     H      0.048340000000     0.776130000000     0.499170000000     0.043791   
H165     H      0.962440000000     0.620150000000     0.464800000000     0.0327528  
H166     H      0.961280000000     0.120160000000     0.465670000000     0.0410203  
H167     H      0.033720000000     0.375670000000     0.465620000000     0.0363022  
H168     H      0.947840000000     0.219620000000     0.499610000000     0.0450831  
H169     H      0.047770000000     0.276070000000     0.499420000000     0.041113   
H170     H      0.034040000000     0.319720000000     0.465220000000     0.068458   
H171     H      0.047760000000     0.219580000000     0.499060000000     0.0444332  
H172     H      0.961560000000     0.319270000000     0.533610000000     0.119099   
H173     H      0.961290000000     0.176200000000     0.465290000000     0.0597688  
H174     H      0.034200000000     0.176040000000     0.533400000000     0.0571236  
H175     H      0.947860000000     0.276070000000     0.499170000000     0.0440156  
H176     H      0.033880000000     0.119950000000     0.533080000000     0.032771   
H177     H      0.875390000000     0.032980000000     0.464220000000     0.0408579  
H178     H      0.619120000000     0.962910000000     0.531350000000     0.0280885  
H179     H      0.776130000000     0.000760000000     0.448270000000     0.0470522  
H180     H      0.719020000000     0.993310000000     0.547540000000     0.0389112  
H181     H      0.675010000000     0.961730000000     0.531870000000     0.0650379  
H182     H      0.775420000000     0.993060000000     0.547930000000     0.0429093  
H183     H      0.676660000000     0.033790000000     0.463000000000     0.119446   
H184     H      0.819390000000     0.033170000000     0.463880000000     0.0597049  
H185     H      0.819380000000     0.961110000000     0.532940000000     0.0558809  
H186     H      0.719760000000     0.001000000000     0.447880000000     0.0451527  
H187     H      0.875420000000     0.961830000000     0.533160000000     0.0323032  
H188     H      0.119350000000     0.963640000000     0.462410000000     0.0417496  
H189     H      0.375450000000     0.032500000000     0.531490000000     0.0366945  
H190     H      0.218850000000     0.995770000000     0.447330000000     0.0460459  
H191     H      0.275890000000     0.000770000000     0.546800000000     0.0417998  
H192     H      0.319570000000     0.033200000000     0.531910000000     0.068361   
H193     H      0.219500000000     0.000850000000     0.547160000000     0.0453017  
H194     H      0.318630000000     0.962790000000     0.461340000000     0.12228    
H195     H      0.175360000000     0.963250000000     0.461980000000     0.0607247  
H196     H      0.175750000000     0.033290000000     0.533080000000     0.0568623  
H197     H      0.275230000000     0.995670000000     0.446970000000     0.0455564  
H198     H      0.119730000000     0.032760000000     0.533380000000     0.0328791  
H199     H      0.962370000000     0.619450000000     0.033050000000     0.041608   
H200     H      0.031870000000     0.875590000000     0.964700000000     0.0361675  
H201     H      0.993730000000     0.719190000000     0.048700000000     0.0461203  
H202     H      0.001190000000     0.775730000000     0.949090000000     0.043144   
H203     H      0.032790000000     0.819700000000     0.964480000000     0.0680511  
H204     H      0.001640000000     0.719320000000     0.949060000000     0.0451404  
H205     H      0.960760000000     0.818740000000     0.033390000000     0.119297   
H206     H      0.961660000000     0.675480000000     0.033150000000     0.0602234  
H207     H      0.034140000000     0.675860000000     0.964550000000     0.0593919  
H208     H      0.993310000000     0.775580000000     0.048750000000     0.0446507  
H209     H      0.033950000000     0.619820000000     0.964580000000     0.0412108  
H210     H      0.032680000000     0.375310000000     0.033520000000     0.0415379  
H211     H      0.963470000000     0.119540000000     0.963060000000     0.0282073  
H212     H      0.999990000000     0.275970000000     0.047760000000     0.0456297  
H213     H      0.995140000000     0.219400000000     0.948000000000     0.0397865  
H214     H      0.962730000000     0.175470000000     0.962640000000     0.0654837  
H215     H      0.995260000000     0.275820000000     0.947900000000     0.0445906  
H216     H      0.033010000000     0.176430000000     0.033330000000     0.119882   
H217     H      0.032840000000     0.319280000000     0.033480000000     0.0603294  
H218     H      0.963100000000     0.319770000000     0.962100000000     0.059006   
H219     H      0.999910000000     0.219580000000     0.047840000000     0.0440946  
H220     H      0.963870000000     0.375800000000     0.962260000000     0.0412751  
H221     H      0.875550000000     0.033480000000     0.963150000000     0.0329926  
H222     H      0.619290000000     0.964390000000     0.031590000000     0.0286126  
H223     H      0.775930000000     0.001890000000     0.947790000000     0.0443925  
H224     H      0.718770000000     0.996180000000     0.047150000000     0.0399837  
H225     H      0.675160000000     0.963840000000     0.032080000000     0.0658856  
H226     H      0.775150000000     0.996080000000     0.047580000000     0.0444382  
H227     H      0.676000000000     0.034530000000     0.961780000000     0.118734   
H228     H      0.819530000000     0.034200000000     0.962760000000     0.0569644  
H229     H      0.818800000000     0.963550000000     0.033260000000     0.0592142  
H230     H      0.719550000000     0.001980000000     0.947360000000     0.0434223  
H231     H      0.874810000000     0.963740000000     0.033510000000     0.0411785  
H232     H      0.119150000000     0.961600000000     0.964330000000     0.0418256  
H233     H      0.375260000000     0.031770000000     0.031880000000     0.0453896  
H234     H      0.218850000000     0.946720000000     0.996120000000     0.0459399  
H235     H      0.275330000000     0.046500000000     0.001230000000     0.0436096  
H236     H      0.319400000000     0.031800000000     0.033110000000     0.0717475  
H237     H      0.218950000000     0.046520000000     0.001750000000     0.0471678  
H238     H      0.318280000000     0.961420000000     0.962500000000     0.122171   
H239     H      0.175150000000     0.961400000000     0.963790000000     0.0606769  
H240     H      0.175440000000     0.031900000000     0.034440000000     0.0604014  
H241     H      0.275240000000     0.946700000000     0.995600000000     0.0453302  
H242     H      0.119410000000     0.031980000000     0.034060000000     0.0417219  
H243     H      0.033610000000     0.031510000000     0.620850000000     0.0326842  
H244     H      0.961790000000     0.030870000000     0.876640000000     0.0280157  
H245     H      0.047380000000     0.997480000000     0.720310000000     0.0444123  
H246     H      0.947550000000     0.997330000000     0.776940000000     0.0388529  
H247     H      0.961400000000     0.031500000000     0.820690000000     0.0652419  
H248     H      0.947470000000     0.997840000000     0.720450000000     0.0427632  
H249     H      0.033800000000     0.963030000000     0.819880000000     0.119298   
H250     H      0.033690000000     0.031910000000     0.676920000000     0.0568161  
H251     H      0.961100000000     0.963470000000     0.676880000000     0.0563243  
H252     H      0.047470000000     0.997740000000     0.776770000000     0.0438172  
H253     H      0.961350000000     0.963760000000     0.620790000000     0.0323611  
H254     H      0.031240000000     0.033630000000     0.120800000000     0.0416762  
H255     H      0.030130000000     0.962250000000     0.376610000000     0.0365701  
H256     H      0.997390000000     0.048000000000     0.220230000000     0.0463164  
H257     H      0.996240000000     0.948270000000     0.277080000000     0.0416337  
H258     H      0.030620000000     0.961800000000     0.320670000000     0.0688449  
H259     H      0.996700000000     0.948060000000     0.220590000000     0.0459504  
H260     H      0.963020000000     0.035020000000     0.319940000000     0.119608   
H261     H      0.031620000000     0.033870000000     0.176860000000     0.0601965  
H262     H      0.962500000000     0.961920000000     0.177020000000     0.0597855  
H263     H      0.997730000000     0.048200000000     0.276700000000     0.0444629  
H264     H      0.962820000000     0.962000000000     0.120940000000     0.0412757  
N1       N      0.498830000000     0.497390000000     0.616030000000    -0.233323   
N2       N      0.498120000000     0.498510000000     0.880270000000    -0.183852   
N3       N      0.498520000000     0.498800000000     0.380130000000    -0.232336   
N4       N      0.498470000000     0.497270000000     0.115930000000    -0.182684   
N5       N      0.497390000000     0.880500000000     0.496830000000    -0.232154   
N6       N      0.498430000000     0.616370000000     0.498740000000    -0.181416   
N7       N      0.496770000000     0.116440000000     0.497340000000    -0.231827   
N8       N      0.498540000000     0.380610000000     0.497260000000    -0.182532   
N9       N      0.499200000000     0.615990000000     0.998920000000    -0.233651   
N10      N      0.498400000000     0.880260000000     0.997480000000    -0.181681   
N11      N      0.496070000000     0.115940000000     0.996680000000    -0.23133    
N12      N      0.498090000000     0.380160000000     0.997320000000    -0.184247   
N13      N      0.496720000000     0.997620000000     0.878790000000    -0.231298   
N14      N      0.497460000000     0.998670000000     0.614660000000    -0.182708   
N15      N      0.497240000000     0.998970000000     0.114790000000    -0.232283   
N16      N      0.498140000000     0.998720000000     0.378940000000    -0.180369   
N17      N      0.616390000000     0.499210000000     0.497750000000    -0.231267   
N18      N      0.880560000000     0.498530000000     0.498830000000    -0.182673   
N19      N      0.116410000000     0.497260000000     0.497720000000    -0.233169   
N20      N      0.380620000000     0.498600000000     0.498340000000    -0.18363    
N21      N      0.880500000000     0.497160000000     0.996840000000    -0.232381   
N22      N      0.616300000000     0.497710000000     0.997850000000    -0.183055   
N23      N      0.116400000000     0.497360000000     0.000030000000    -0.230371   
N24      N      0.380620000000     0.498410000000     0.998430000000    -0.184097   
N25      N      0.000190000000     0.498510000000     0.880520000000    -0.231006   
N26      N      0.999110000000     0.498360000000     0.616300000000    -0.183063   
N27      N      0.996890000000     0.497530000000     0.116430000000    -0.232317   
N28      N      0.997950000000     0.497290000000     0.380710000000    -0.182847   
N29      N      0.998400000000     0.879960000000     0.498290000000    -0.233424   
N30      N      0.998720000000     0.615830000000     0.498490000000    -0.18402    
N31      N      0.997540000000     0.379940000000     0.499520000000    -0.232375   
N32      N      0.997570000000     0.115830000000     0.499380000000    -0.182933   
N33      N      0.615440000000     0.998580000000     0.496850000000    -0.233348   
N34      N      0.879630000000     0.997410000000     0.498700000000    -0.182889   
N35      N      0.379500000000     0.997660000000     0.496180000000    -0.231311   
N36      N      0.115310000000     0.998190000000     0.497920000000    -0.182781   
N37      N      0.996260000000     0.879620000000     0.999220000000    -0.232769   
N38      N      0.998170000000     0.615410000000     0.998810000000    -0.182115   
N39      N      0.998210000000     0.115530000000     0.998460000000    -0.233815   
N40      N      0.998280000000     0.379780000000     0.997920000000    -0.182009   
N41      N      0.615180000000     0.999330000000     0.996390000000    -0.233494   
N42      N      0.879420000000     0.998580000000     0.998340000000    -0.183148   
N43      N      0.379230000000     0.996580000000     0.996910000000    -0.230494   
N44      N      0.115050000000     0.996810000000     0.999190000000    -0.181997   
N45      N      0.997920000000     0.996910000000     0.880740000000    -0.23358    
N46      N      0.997500000000     0.997630000000     0.616590000000    -0.184226   
N47      N      0.996610000000     0.998790000000     0.380760000000    -0.232699   
N48      N      0.997020000000     0.997810000000     0.116640000000    -0.18198    
O1       O      0.997220000000     0.997580000000     0.998740000000    -0.371864   
O2       O      0.978900000000     0.979680000000     0.070170000000    -0.292104   
O3       O      0.068640000000     0.015270000000     0.017080000000    -0.28975    
O4       O      0.014840000000     0.925970000000     0.981080000000    -0.296847   
O5       O      0.015150000000     0.015810000000     0.070130000000    -0.290324   
O6       O      0.978420000000     0.926490000000     0.016930000000    -0.259185   
O7       O      0.068520000000     0.978840000000     0.981120000000    -0.291324   
O8       O      0.979570000000     0.015340000000     0.927090000000    -0.30424    
O9       O      0.015680000000     0.068740000000     0.016660000000    -0.258657   
O10      O      0.015620000000     0.979110000000     0.927630000000    -0.258997   
O11      O      0.979890000000     0.069110000000     0.980180000000    -0.305114   
O12      O      0.926090000000     0.016200000000     0.980270000000    -0.298936   
O13      O      0.925690000000     0.980250000000     0.016720000000    -0.291173   
O14      O      0.997470000000     0.997950000000     0.498760000000    -0.369955   
O15      O      0.979150000000     0.016740000000     0.427680000000    -0.259266   
O16      O      0.068740000000     0.980340000000     0.479830000000    -0.292084   
O17      O      0.015860000000     0.069250000000     0.517090000000    -0.29965    
O18      O      0.014860000000     0.980190000000     0.427060000000    -0.29676    
O19      O      0.979140000000     0.069430000000     0.481430000000    -0.292928   
O20      O      0.068940000000     0.015880000000     0.516670000000    -0.299733   
O21      O      0.979350000000     0.979630000000     0.570060000000    -0.300747   
O22      O      0.015890000000     0.926860000000     0.480330000000    -0.259693   
O23      O      0.015790000000     0.015610000000     0.570130000000    -0.299162   
O24      O      0.979830000000     0.926290000000     0.516550000000    -0.305521   
O25      O      0.926150000000     0.979280000000     0.516690000000    -0.300534   
O26      O      0.926060000000     0.015980000000     0.480990000000    -0.292475   
O27      O      0.998450000000     0.497590000000     0.998470000000    -0.372346   
O28      O      0.980730000000     0.426380000000     0.979600000000    -0.291464   
O29      O      0.069510000000     0.479290000000     0.017490000000    -0.258235   
O30      O      0.017670000000     0.516120000000     0.927560000000    -0.259058   
O31      O      0.016090000000     0.426140000000     0.016620000000    -0.289376   
O32      O      0.981480000000     0.480060000000     0.926680000000    -0.297668   
O33      O      0.070100000000     0.515680000000     0.981600000000    -0.297355   
O34      O      0.979810000000     0.568830000000     0.016390000000    -0.290233   
O35      O      0.015490000000     0.479380000000     0.070100000000    -0.296314   
O36      O      0.016840000000     0.569030000000     0.981050000000    -0.290707   
O37      O      0.979360000000     0.515520000000     0.069550000000    -0.259602   
O38      O      0.926740000000     0.515320000000     0.015610000000    -0.296551   
O39      O      0.927450000000     0.479490000000     0.979170000000    -0.25984    
O40      O      0.998430000000     0.497960000000     0.498500000000    -0.369388   
O41      O      0.979800000000     0.426910000000     0.517050000000    -0.260391   
O42      O      0.015940000000     0.479160000000     0.427230000000    -0.291409   
O43      O      0.927070000000     0.516290000000     0.480470000000    -0.300846   
O44      O      0.016040000000     0.426200000000     0.481020000000    -0.29664    
O45      O      0.927010000000     0.480440000000     0.517010000000    -0.293145   
O46      O      0.980310000000     0.515920000000     0.427160000000    -0.300064   
O47      O      0.017060000000     0.569290000000     0.516230000000    -0.300142   
O48      O      0.069540000000     0.479280000000     0.480120000000    -0.260713   
O49      O      0.980420000000     0.569380000000     0.480470000000    -0.300972   
O50      O      0.070070000000     0.515680000000     0.515990000000    -0.306048   
O51      O      0.017160000000     0.516160000000     0.569670000000    -0.299599   
O52      O      0.980550000000     0.480380000000     0.569980000000    -0.29339    
O53      O      0.497240000000     0.998020000000     0.996800000000    -0.373228   
O54      O      0.426070000000     0.978940000000     0.978930000000    -0.251019   
O55      O      0.478800000000     0.016110000000     0.067950000000    -0.251266   
O56      O      0.516090000000     0.926980000000     0.015430000000    -0.297665   
O57      O      0.425590000000     0.015370000000     0.014750000000    -0.286345   
O58      O      0.480020000000     0.926490000000     0.979090000000    -0.284589   
O59      O      0.515800000000     0.980850000000     0.068390000000    -0.303898   
O60      O      0.568280000000     0.016800000000     0.978390000000    -0.258921   
O61      O      0.478370000000     0.069110000000     0.014610000000    -0.250531   
O62      O      0.568880000000     0.980890000000     0.014770000000    -0.303793   
O63      O      0.514480000000     0.069560000000     0.978450000000    -0.296036   
O64      O      0.514900000000     0.016010000000     0.925200000000    -0.295698   
O65      O      0.479080000000     0.979560000000     0.925590000000    -0.251931   
O66      O      0.497500000000     0.998480000000     0.496820000000    -0.371289   
O67      O      0.425830000000     0.015930000000     0.514650000000    -0.295988   
O68      O      0.479880000000     0.980590000000     0.425330000000    -0.283427   
O69      O      0.515350000000     0.070070000000     0.479250000000    -0.297034   
O70      O      0.426370000000     0.980090000000     0.478220000000    -0.252185   
O71      O      0.478720000000     0.069590000000     0.514900000000    -0.259552   
O72      O      0.515930000000     0.016940000000     0.425530000000    -0.289674   
O73      O      0.568900000000     0.980270000000     0.514770000000    -0.305227   
O74      O      0.479840000000     0.927200000000     0.478430000000    -0.252612   
O75      O      0.568780000000     0.016890000000     0.479100000000    -0.259254   
O76      O      0.515370000000     0.927030000000     0.515170000000    -0.304832   
O77      O      0.515790000000     0.980690000000     0.568210000000    -0.29965    
O78      O      0.478970000000     0.016260000000     0.568130000000    -0.291319   
O79      O      0.498440000000     0.498020000000     0.998080000000    -0.368489   
O80      O      0.480340000000     0.479470000000     0.069340000000    -0.300982   
O81      O      0.569900000000     0.515690000000     0.016250000000    -0.292228   
O82      O      0.516360000000     0.426700000000     0.979530000000    -0.301671   
O83      O      0.516650000000     0.515540000000     0.069550000000    -0.293099   
O84      O      0.480150000000     0.426590000000     0.015700000000    -0.300647   
O85      O      0.569750000000     0.479860000000     0.979700000000    -0.300864   
O86      O      0.480220000000     0.516630000000     0.926840000000    -0.301089   
O87      O      0.516890000000     0.569080000000     0.016640000000    -0.259934   
O88      O      0.516280000000     0.480280000000     0.926660000000    -0.301608   
O89      O      0.480750000000     0.569690000000     0.980500000000    -0.305978   
O90      O      0.427070000000     0.516640000000     0.980330000000    -0.300879   
O91      O      0.427120000000     0.480040000000     0.016130000000    -0.300323   
O92      O      0.498420000000     0.498480000000     0.498110000000    -0.369753   
O93      O      0.427070000000     0.480640000000     0.480040000000    -0.300924   
O94      O      0.480630000000     0.515880000000     0.569680000000    -0.306252   
O95      O      0.516980000000     0.426980000000     0.515360000000    -0.292178   
O96      O      0.427130000000     0.516560000000     0.516540000000    -0.300598   
O97      O      0.480170000000     0.427230000000     0.479790000000    -0.300136   
O98      O      0.516810000000     0.479790000000     0.569170000000    -0.260643   
O99      O      0.569560000000     0.517020000000     0.479950000000    -0.252412   
O100     O      0.480550000000     0.569820000000     0.516990000000    -0.299451   
O101     O      0.570020000000     0.480610000000     0.515800000000    -0.297114   
O102     O      0.516120000000     0.569930000000     0.480180000000    -0.284748   
O103     O      0.516350000000     0.516820000000     0.426860000000    -0.253201   
O104     O      0.480270000000     0.480630000000     0.426610000000    -0.305396   
Zn1      Zn     0.970820000000     0.971780000000     0.024880000000     0.463815   
Zn2      Zn     0.023400000000     0.023560000000     0.024890000000     0.466181   
Zn3      Zn     0.023280000000     0.971140000000     0.972930000000     0.464719   
Zn4      Zn     0.971450000000     0.023820000000     0.972310000000     0.455117   
Zn5      Zn     0.971230000000     0.024270000000     0.473010000000     0.463874   
Zn6      Zn     0.023460000000     0.972120000000     0.472230000000     0.464743   
Zn7      Zn     0.023750000000     0.023900000000     0.524910000000     0.455284   
Zn8      Zn     0.971460000000     0.971530000000     0.524750000000     0.453483   
Zn9      Zn     0.972800000000     0.471660000000     0.971740000000     0.464189   
Zn10     Zn     0.024130000000     0.471360000000     0.024920000000     0.46577    
Zn11     Zn     0.025010000000     0.523830000000     0.972950000000     0.465196   
Zn12     Zn     0.971850000000     0.523550000000     0.024230000000     0.4653     
Zn13     Zn     0.972210000000     0.472210000000     0.524850000000     0.463471   
Zn14     Zn     0.024220000000     0.471390000000     0.472490000000     0.46457    
Zn15     Zn     0.972340000000     0.524140000000     0.472400000000     0.453878   
Zn16     Zn     0.024930000000     0.524010000000     0.524330000000     0.455333   
Zn17     Zn     0.471380000000     0.971540000000     0.970870000000     0.473088   
Zn18     Zn     0.470750000000     0.023860000000     0.022720000000     0.476114   
Zn19     Zn     0.523740000000     0.972430000000     0.023110000000     0.456419   
Zn20     Zn     0.522950000000     0.024340000000     0.970450000000     0.465594   
Zn21     Zn     0.471000000000     0.024280000000     0.522860000000     0.46526    
Zn22     Zn     0.471680000000     0.972390000000     0.470460000000     0.473401   
Zn23     Zn     0.523590000000     0.024870000000     0.470930000000     0.465132   
Zn24     Zn     0.523630000000     0.972350000000     0.522970000000     0.455545   
Zn25     Zn     0.472300000000     0.471790000000     0.024050000000     0.455047   
Zn26     Zn     0.524700000000     0.523800000000     0.024360000000     0.464232   
Zn27     Zn     0.524460000000     0.471980000000     0.971780000000     0.453739   
Zn28     Zn     0.472370000000     0.524500000000     0.972190000000     0.453665   
Zn29     Zn     0.472240000000     0.472520000000     0.471890000000     0.455313   
Zn30     Zn     0.472440000000     0.524450000000     0.524560000000     0.454833   
Zn31     Zn     0.524810000000     0.472220000000     0.523830000000     0.464164   
Zn32     Zn     0.524310000000     0.524780000000     0.472050000000     0.473512   


