data_structure

_audit_creation_method RASPA-1.0
_audit_creation_date 2023-5-19
_audit_author_name 'Poobodin Mano'

_cell_length_a    43.2368
_cell_length_b    43.2445
_cell_length_c    43.2321
_cell_angle_alpha 90
_cell_angle_beta  90
_cell_angle_gamma 90
_cell_volume      80833.4

_symmetry_cell_setting          triclinic
_symmetry_space_group_name_Hall 'P 1'
_symmetry_space_group_name_H-M  'P 1'
_symmetry_Int_Tables_number     1

_symmetry_equiv_pos_as_xyz 'x,y,z'

loop_
_atom_site_label
_atom_site_type_symbol
_atom_site_fract_x
_atom_site_fract_y
_atom_site_fract_z
_atom_site_charge
Br1      Br     0.449900000000     0.549640000000     0.881090000000    -0.225616   
Br2      Br     0.448420000000     0.444770000000     0.115870000000    -0.205653   
Br3      Br     0.449720000000     0.614510000000     0.445580000000    -0.225638   
Br4      Br     0.448900000000     0.115220000000     0.547930000000    -0.226371   
Br5      Br     0.542750000000     0.878760000000     0.052690000000    -0.202837   
Br6      Br     0.544410000000     0.111070000000     0.940310000000    -0.225576   
Br7      Br     0.446430000000     0.943840000000     0.879250000000    -0.20401    
Br8      Br     0.440590000000     0.045590000000     0.112690000000    -0.224728   
Br9      Br     0.616710000000     0.543700000000     0.552870000000    -0.227831   
Br10     Br     0.381340000000     0.450880000000     0.550920000000    -0.225683   
Br11     Br     0.879200000000     0.451300000000     0.048640000000    -0.20573    
Br12     Br     0.380230000000     0.439950000000     0.043140000000    -0.205757   
Br13     Br     0.052260000000     0.453840000000     0.878240000000    -0.226011   
Br14     Br     0.952990000000     0.441780000000     0.114740000000    -0.206163   
Br15     Br     0.044520000000     0.883180000000     0.554190000000    -0.226343   
Br16     Br     0.047170000000     0.383630000000     0.444260000000    -0.226779   
Br17     Br     0.880560000000     0.054420000000     0.547030000000    -0.22676    
Br18     Br     0.380860000000     0.942170000000     0.452880000000    -0.226292   
Br19     Br     0.049240000000     0.613120000000     0.044640000000    -0.226023   
Br20     Br     0.947640000000     0.114350000000     0.050810000000    -0.226075   
Br21     Br     0.612840000000     0.942120000000     0.044700000000    -0.203521   
Br22     Br     0.377790000000     0.943680000000     0.949540000000    -0.204042   
Br23     Br     0.952410000000     0.942860000000     0.881630000000    -0.226853   
Br24     Br     0.953100000000     0.944150000000     0.384460000000    -0.227327   
C1       C      0.081840000000     0.996550000000     0.000430000000     0.369115   
C2       C      0.995890000000     0.995810000000     0.914450000000     0.376401   
C3       C      0.995970000000     0.909800000000     0.000260000000     0.368498   
C4       C      0.909800000000     0.995710000000     0.000330000000     0.36901    
C5       C      0.994920000000     0.082020000000     0.000850000000     0.37725    
C6       C      0.996200000000     0.995750000000     0.086620000000     0.367263   
C7       C      0.998980000000     0.087150000000     0.498990000000     0.368358   
C8       C      0.912520000000     0.002210000000     0.502000000000     0.378066   
C9       C      0.997000000000     0.998310000000     0.414620000000     0.37607    
C10      C      0.998500000000     0.915040000000     0.502840000000     0.377204   
C11      C      0.999980000000     0.002340000000     0.586680000000     0.368207   
C12      C      0.084630000000     0.001220000000     0.499040000000     0.370064   
C13      C      0.996910000000     0.409800000000     0.995500000000     0.368104   
C14      C      0.997140000000     0.494610000000     0.082650000000     0.376956   
C15      C      0.083590000000     0.495310000000     0.996980000000     0.369538   
C16      C      0.998310000000     0.581850000000     0.997690000000     0.376594   
C17      C      0.911450000000     0.496420000000     0.996690000000     0.376886   
C18      C      0.998450000000     0.496740000000     0.910400000000     0.376731   
C19      C      0.000770000000     0.415060000000     0.495600000000     0.378568   
C20      C      0.999600000000     0.501710000000     0.410390000000     0.36855    
C21      C      0.913410000000     0.499930000000     0.496020000000     0.369165   
C22      C      0.998620000000     0.587200000000     0.496940000000     0.368393   
C23      C      0.085460000000     0.501950000000     0.496840000000     0.369334   
C24      C      0.998630000000     0.500950000000     0.582500000000     0.368086   
C25      C      0.409810000000     0.995330000000     0.995200000000     0.376916   
C26      C      0.493720000000     0.000330000000     0.082730000000     0.378182   
C27      C      0.495850000000     0.909350000000     0.001290000000     0.377813   
C28      C      0.582010000000     0.993860000000     0.998490000000     0.376853   
C29      C      0.497440000000     0.081370000000     0.992120000000     0.377026   
C30      C      0.496620000000     0.991480000000     0.910720000000     0.376564   
C31      C      0.412460000000     0.996120000000     0.495940000000     0.377014   
C32      C      0.498640000000     0.999450000000     0.410610000000     0.368115   
C33      C      0.497290000000     0.083760000000     0.498480000000     0.377477   
C34      C      0.584660000000     0.998680000000     0.496710000000     0.368828   
C35      C      0.499650000000     0.911670000000     0.495680000000     0.369437   
C36      C      0.498300000000     0.996510000000     0.582710000000     0.368672   
C37      C      0.411440000000     0.493320000000     0.998970000000     0.377416   
C38      C      0.499240000000     0.409390000000     0.995710000000     0.368898   
C39      C      0.496430000000     0.498140000000     0.912020000000     0.377878   
C40      C      0.583540000000     0.497430000000     0.996960000000     0.368825   
C41      C      0.497980000000     0.492950000000     0.084250000000     0.377233   
C42      C      0.495740000000     0.581350000000     0.000610000000     0.369822   
C43      C      0.413290000000     0.496280000000     0.499020000000     0.377636   
C44      C      0.500770000000     0.411710000000     0.498270000000     0.36931    
C45      C      0.500020000000     0.496690000000     0.412140000000     0.369668   
C46      C      0.585560000000     0.499580000000     0.499490000000     0.377624   
C47      C      0.499400000000     0.498520000000     0.584120000000     0.369796   
C48      C      0.497420000000     0.583730000000     0.496130000000     0.377638   
C49      C      0.478430000000     0.519410000000     0.830950000000    -0.127133   
C50      C      0.481340000000     0.478060000000     0.632010000000     0.074498   
C51      C      0.517590000000     0.519190000000     0.631900000000     0.0743492  
C52      C      0.481120000000     0.477760000000     0.664300000000    -0.087394   
C53      C      0.499470000000     0.470850000000     0.731790000000    -0.0344471  
C54      C      0.499090000000     0.470930000000     0.764110000000    -0.0294402  
C55      C      0.499380000000     0.498800000000     0.715180000000    -0.00211692 
C56      C      0.517840000000     0.519590000000     0.664210000000    -0.0873764  
C57      C      0.498490000000     0.498960000000     0.780550000000    -0.0104267  
C58      C      0.516190000000     0.478810000000     0.831920000000    -0.0999766  
C59      C      0.498500000000     0.526920000000     0.763940000000    -0.0293081  
C60      C      0.515200000000     0.479240000000     0.864140000000     0.0789837  
C61      C      0.477700000000     0.519430000000     0.863360000000     0.189153   
C62      C      0.498990000000     0.526830000000     0.731630000000    -0.0339248  
C63      C      0.499490000000     0.498700000000     0.680810000000     0.050986   
C64      C      0.497710000000     0.499050000000     0.814910000000     0.0704914  
C65      C      0.478930000000     0.473730000000     0.165580000000    -0.126069   
C66      C      0.520960000000     0.478390000000     0.364510000000     0.0731882  
C67      C      0.479610000000     0.514390000000     0.364090000000     0.0739261  
C68      C      0.521380000000     0.477880000000     0.332200000000    -0.0888703  
C69      C      0.528020000000     0.495580000000     0.264320000000    -0.0344408  
C70      C      0.527750000000     0.495030000000     0.231990000000    -0.0298834  
C71      C      0.500150000000     0.495360000000     0.281090000000    -0.00268605 
C72      C      0.479330000000     0.514330000000     0.331800000000    -0.0877919  
C73      C      0.499620000000     0.494100000000     0.215720000000    -0.0100643  
C74      C      0.519010000000     0.512030000000     0.164110000000    -0.0994496  
C75      C      0.471770000000     0.493900000000     0.232490000000    -0.0294371  
C76      C      0.517980000000     0.511250000000     0.131870000000     0.0789109  
C77      C      0.478310000000     0.473200000000     0.133180000000     0.187662   
C78      C      0.472030000000     0.494560000000     0.264790000000    -0.0337145  
C79      C      0.500350000000     0.495910000000     0.315440000000     0.0508504  
C80      C      0.499250000000     0.493250000000     0.181360000000     0.0702188  
C81      C      0.478330000000     0.664720000000     0.475590000000    -0.126824   
C82      C      0.518840000000     0.863780000000     0.515150000000     0.0731433  
C83      C      0.480570000000     0.863900000000     0.475890000000     0.0738446  
C84      C      0.518980000000     0.831490000000     0.515510000000    -0.088859   
C85      C      0.526710000000     0.763740000000     0.498340000000    -0.034493   
C86      C      0.526310000000     0.731420000000     0.498390000000    -0.0296967  
C87      C      0.499020000000     0.780610000000     0.495890000000    -0.00242016 
C88      C      0.480100000000     0.831610000000     0.475670000000    -0.0874775  
C89      C      0.498220000000     0.715220000000     0.495990000000    -0.0100288  
C90      C      0.516790000000     0.663900000000     0.515550000000    -0.0983871  
C91      C      0.470530000000     0.732100000000     0.493670000000    -0.0292309  
C92      C      0.516030000000     0.631670000000     0.515020000000     0.0794591  
C93      C      0.477930000000     0.632320000000     0.475380000000     0.189441   
C94      C      0.470920000000     0.764410000000     0.493620000000    -0.0340384  
C95      C      0.499400000000     0.814980000000     0.495670000000     0.0506814  
C96      C      0.497780000000     0.680850000000     0.495730000000     0.0703851  
C97      C      0.478290000000     0.165030000000     0.517990000000    -0.127068   
C98      C      0.520290000000     0.363900000000     0.478870000000     0.0729542  
C99      C      0.481080000000     0.363860000000     0.517200000000     0.0734819  
C100     C      0.520340000000     0.331590000000     0.478310000000    -0.0887469  
C101     C      0.527440000000     0.263670000000     0.495410000000    -0.0348468  
C102     C      0.526940000000     0.231350000000     0.495540000000    -0.0298509  
C103     C      0.499760000000     0.280640000000     0.497230000000    -0.00254442 
C104     C      0.480520000000     0.331590000000     0.517210000000    -0.0877139  
C105     C      0.498740000000     0.215250000000     0.497480000000    -0.0105095  
C106     C      0.517480000000     0.163670000000     0.478790000000    -0.0997247  
C107     C      0.471060000000     0.232230000000     0.499060000000    -0.0294034  
C108     C      0.516560000000     0.131450000000     0.479590000000     0.0785841  
C109     C      0.477730000000     0.132630000000     0.518500000000     0.188919   
C110     C      0.471560000000     0.264530000000     0.498930000000    -0.0342248  
C111     C      0.500240000000     0.315010000000     0.497580000000     0.0504154  
C112     C      0.498180000000     0.180890000000     0.498060000000     0.070168   
C113     C      0.513950000000     0.828430000000     0.023050000000    -0.124831   
C114     C      0.475670000000     0.629200000000     0.982000000000     0.0738932  
C115     C      0.514200000000     0.629150000000     0.021010000000     0.0735394  
C116     C      0.475020000000     0.661490000000     0.982090000000    -0.0877206  
C117     C      0.492700000000     0.729090000000     0.974440000000    -0.0339253  
C118     C      0.492770000000     0.761400000000     0.974610000000    -0.029211   
C119     C      0.494170000000     0.712400000000     0.002310000000    -0.0021151  
C120     C      0.514060000000     0.661450000000     0.021760000000    -0.088626   
C121     C      0.494250000000     0.777810000000     0.002650000000    -0.00875276 
C122     C      0.476030000000     0.829110000000     0.982600000000    -0.0964914  
C123     C      0.495560000000     0.761100000000     0.030530000000    -0.0292411  
C124     C      0.476970000000     0.861340000000     0.982840000000     0.0807273  
C125     C      0.514540000000     0.860840000000     0.022980000000     0.189083   
C126     C      0.495560000000     0.728780000000     0.030360000000    -0.0336351  
C127     C      0.494380000000     0.678030000000     0.002090000000     0.0512237  
C128     C      0.494690000000     0.812210000000     0.002800000000     0.070772   
C129     C      0.517550000000     0.161950000000     0.970860000000    -0.126417   
C130     C      0.480430000000     0.361040000000     0.014250000000     0.074571   
C131     C      0.518610000000     0.362080000000     0.974920000000     0.073458   
C132     C      0.480110000000     0.328760000000     0.013690000000    -0.0859311  
C133     C      0.471210000000     0.261910000000     0.994510000000    -0.0341499  
C134     C      0.470980000000     0.229600000000     0.994020000000    -0.0290285  
C135     C      0.499210000000     0.278310000000     0.992330000000    -0.00186285 
C136     C      0.518890000000     0.329780000000     0.973790000000    -0.0881543  
C137     C      0.498740000000     0.212900000000     0.991320000000    -0.00969356 
C138     C      0.479170000000     0.161950000000     0.010890000000    -0.0977836  
C139     C      0.526730000000     0.229290000000     0.988980000000    -0.0292428  
C140     C      0.479310000000     0.129710000000     0.010450000000     0.0799843  
C141     C      0.517310000000     0.129530000000     0.970720000000     0.189537   
C142     C      0.526960000000     0.261620000000     0.989470000000    -0.0339692  
C143     C      0.499430000000     0.312690000000     0.993260000000     0.0505463  
C144     C      0.498490000000     0.178500000000     0.991040000000     0.0703195  
C145     C      0.476830000000     0.972740000000     0.829410000000    -0.125088   
C146     C      0.518600000000     0.977530000000     0.630340000000     0.0730929  
C147     C      0.477960000000     0.014330000000     0.630780000000     0.0741562  
C148     C      0.518890000000     0.976840000000     0.662640000000    -0.0885483  
C149     C      0.525910000000     0.994200000000     0.730510000000    -0.0341327  
C150     C      0.525720000000     0.993470000000     0.762840000000    -0.0296986  
C151     C      0.498000000000     0.994560000000     0.713810000000    -0.00234073 
C152     C      0.477550000000     0.014100000000     0.663100000000    -0.0868831  
C153     C      0.497620000000     0.992940000000     0.779190000000    -0.00925781 
C154     C      0.517560000000     0.010340000000     0.830770000000    -0.0969446  
C155     C      0.469730000000     0.993310000000     0.762490000000    -0.0292272  
C156     C      0.516720000000     0.009450000000     0.863010000000     0.0805943  
C157     C      0.476430000000     0.972070000000     0.861830000000     0.188257   
C158     C      0.469910000000     0.994170000000     0.730180000000    -0.0335601  
C159     C      0.498180000000     0.995210000000     0.679440000000     0.0502894  
C160     C      0.497370000000     0.991980000000     0.813560000000     0.0698489  
C161     C      0.473240000000     0.020900000000     0.163430000000    -0.126431   
C162     C      0.517430000000     0.020000000000     0.362980000000     0.0732506  
C163     C      0.478640000000     0.981260000000     0.362570000000     0.0731854  
C164     C      0.517230000000     0.021120000000     0.330680000000    -0.0889169  
C165     C      0.524210000000     0.004350000000     0.262550000000    -0.0339194  
C166     C      0.523620000000     0.004590000000     0.230230000000    -0.0294399  
C167     C      0.496550000000     0.002840000000     0.279570000000    -0.00262821 
C168     C      0.477750000000     0.981900000000     0.330290000000    -0.0883216  
C169     C      0.495350000000     0.003490000000     0.214190000000    -0.00960008 
C170     C      0.515440000000     0.984930000000     0.163160000000    -0.0977569  
C171     C      0.467680000000     0.002270000000     0.231210000000    -0.0290741  
C172     C      0.514320000000     0.984510000000     0.130950000000     0.0804045  
C173     C      0.472550000000     0.020250000000     0.131010000000     0.190118   
C174     C      0.468280000000     0.001880000000     0.263530000000    -0.0335859  
C175     C      0.497170000000     0.001980000000     0.313920000000     0.0513882  
C176     C      0.494740000000     0.003200000000     0.179820000000     0.0713508  
C177     C      0.666720000000     0.517830000000     0.520110000000    -0.127552   
C178     C      0.865310000000     0.518630000000     0.476590000000     0.0724246  
C179     C      0.865850000000     0.480030000000     0.515530000000     0.0722914  
C180     C      0.833010000000     0.518630000000     0.476450000000    -0.0894227  
C181     C      0.765390000000     0.500240000000     0.469230000000    -0.0350639  
C182     C      0.733070000000     0.500320000000     0.469770000000    -0.0301659  
C183     C      0.782380000000     0.499010000000     0.496940000000    -0.00339124 
C184     C      0.833560000000     0.479540000000     0.516070000000    -0.0895269  
C185     C      0.717010000000     0.499340000000     0.498030000000    -0.0109199  
C186     C      0.665570000000     0.481790000000     0.477970000000    -0.100181   
C187     C      0.734000000000     0.498100000000     0.525720000000    -0.030082   
C188     C      0.633340000000     0.482220000000     0.479050000000     0.0785734  
C189     C      0.634320000000     0.518020000000     0.520770000000     0.188866   
C190     C      0.766310000000     0.497880000000     0.525180000000    -0.0346167  
C191     C      0.816730000000     0.499010000000     0.496430000000     0.0501776  
C192     C      0.682660000000     0.499690000000     0.498660000000     0.0700145  
C193     C      0.331820000000     0.479490000000     0.519760000000    -0.12681    
C194     C      0.133340000000     0.483210000000     0.477020000000     0.0734566  
C195     C      0.133240000000     0.520710000000     0.517020000000     0.0731032  
C196     C      0.165630000000     0.482830000000     0.476880000000    -0.0878658  
C197     C      0.233320000000     0.500450000000     0.469880000000    -0.0343242  
C198     C      0.265630000000     0.499700000000     0.470230000000    -0.0294309  
C199     C      0.216500000000     0.501330000000     0.497700000000    -0.00255484 
C200     C      0.165540000000     0.520820000000     0.517560000000    -0.0889614  
C201     C      0.281860000000     0.499670000000     0.498400000000    -0.0100109  
C202     C      0.333600000000     0.516190000000     0.478220000000    -0.0984132  
C203     C      0.265040000000     0.500660000000     0.526220000000    -0.029393   
C204     C      0.365800000000     0.514850000000     0.478980000000     0.0797173  
C205     C      0.364220000000     0.478390000000     0.520100000000     0.18942    
C206     C      0.232730000000     0.501530000000     0.525870000000    -0.033946   
C207     C      0.182150000000     0.501720000000     0.497340000000     0.050721   
C208     C      0.316190000000     0.498460000000     0.498790000000     0.07054    
C209     C      0.829920000000     0.479730000000     0.017050000000    -0.125913   
C210     C      0.631580000000     0.480380000000     0.975910000000     0.072641   
C211     C      0.631140000000     0.517360000000     0.016380000000     0.0729192  
C212     C      0.663880000000     0.480990000000     0.975140000000    -0.0890606  
C213     C      0.731250000000     0.500150000000     0.967650000000    -0.0346901  
C214     C      0.763600000000     0.499970000000     0.967780000000    -0.0301808  
C215     C      0.714590000000     0.500510000000     0.995590000000    -0.00328803 
C216     C      0.663420000000     0.518460000000     0.016290000000    -0.0890435  
C217     C      0.779990000000     0.499980000000     0.995870000000    -0.0103642  
C218     C      0.831810000000     0.516630000000     0.975700000000    -0.0993637  
C219     C      0.763320000000     0.500610000000     0.023780000000    -0.0297038  
C220     C      0.864060000000     0.515310000000     0.976580000000     0.0785419  
C221     C      0.862280000000     0.478650000000     0.017520000000     0.18757    
C222     C      0.731010000000     0.500900000000     0.023640000000    -0.033825   
C223     C      0.680220000000     0.500100000000     0.995560000000     0.0502932  
C224     C      0.814340000000     0.498800000000     0.996150000000     0.0696731  
C225     C      0.330270000000     0.472080000000     0.016430000000    -0.125429   
C226     C      0.131490000000     0.514700000000     0.016210000000     0.074623   
C227     C      0.131340000000     0.475700000000     0.977670000000     0.0746323  
C228     C      0.163790000000     0.514910000000     0.016460000000    -0.0868066  
C229     C      0.231440000000     0.522460000000     0.998470000000    -0.0338519  
C230     C      0.263770000000     0.522110000000     0.998680000000    -0.0291876  
C231     C      0.214620000000     0.494670000000     0.997110000000    -0.00182084 
C232     C      0.163630000000     0.475240000000     0.977420000000    -0.0870821  
C233     C      0.279990000000     0.493960000000     0.997700000000    -0.00942343 
C234     C      0.331450000000     0.514460000000     0.980680000000    -0.0979675  
C235     C      0.263170000000     0.466180000000     0.996320000000    -0.0289612  
C236     C      0.363680000000     0.513620000000     0.981410000000     0.0801657  
C237     C      0.362670000000     0.471660000000     0.016920000000     0.188869   
C238     C      0.230860000000     0.466530000000     0.995970000000    -0.0336254  
C239     C      0.180270000000     0.494990000000     0.996960000000     0.0509851  
C240     C      0.314340000000     0.493530000000     0.998280000000     0.0705442  
C241     C      0.019510000000     0.480830000000     0.828880000000    -0.12665    
C242     C      0.978550000000     0.481940000000     0.630230000000     0.0720476  
C243     C      0.017320000000     0.520710000000     0.630440000000     0.072935   
C244     C      0.977830000000     0.481900000000     0.662540000000    -0.0891684  
C245     C      0.969510000000     0.499860000000     0.730200000000    -0.0349162  
C246     C      0.969640000000     0.499420000000     0.762540000000    -0.0301862  
C247     C      0.997420000000     0.501470000000     0.713570000000    -0.0039291  
C248     C      0.017260000000     0.521180000000     0.662740000000    -0.088535   
C249     C      0.997690000000     0.500420000000     0.778950000000    -0.0113037  
C250     C      0.976980000000     0.516370000000     0.830750000000    -0.0997666  
C251     C      0.025560000000     0.502200000000     0.762320000000    -0.0291976  
C252     C      0.977890000000     0.515090000000     0.862990000000     0.0783727  
C253     C      0.020010000000     0.479790000000     0.861250000000     0.18952    
C254     C      0.025430000000     0.502750000000     0.730020000000    -0.0335776  
C255     C      0.997410000000     0.501600000000     0.679200000000     0.0494883  
C256     C      0.997980000000     0.499190000000     0.813300000000     0.0693786  
C257     C      0.979350000000     0.475030000000     0.164160000000    -0.125511   
C258     C      0.980400000000     0.520880000000     0.362370000000     0.0726374  
C259     C      0.018910000000     0.481850000000     0.362770000000     0.0740515  
C260     C      0.980010000000     0.520720000000     0.330050000000    -0.0885545  
C261     C      0.997610000000     0.527120000000     0.262080000000    -0.034474   
C262     C      0.997290000000     0.526190000000     0.229760000000    -0.0298709  
C263     C      0.998940000000     0.499630000000     0.279390000000    -0.00224692 
C264     C      0.019010000000     0.481020000000     0.330490000000    -0.0867975  
C265     C      0.998130000000     0.497740000000     0.214060000000    -0.00932737 
C266     C      0.015430000000     0.517100000000     0.162270000000    -0.0970426  
C267     C      0.999420000000     0.470260000000     0.231370000000    -0.0301248  
C268     C      0.014830000000     0.515600000000     0.130060000000     0.0802751  
C269     C      0.978990000000     0.473930000000     0.131780000000     0.188687   
C270     C      0.999860000000     0.471200000000     0.263660000000    -0.0346688  
C271     C      0.999370000000     0.500540000000     0.313720000000     0.0496194  
C272     C      0.997590000000     0.496670000000     0.179720000000     0.0694286  
C273     C      0.017290000000     0.833640000000     0.521840000000    -0.12613    
C274     C      0.979030000000     0.635120000000     0.477920000000     0.072017   
C275     C      0.017680000000     0.634930000000     0.516810000000     0.0729954  
C276     C      0.978600000000     0.667420000000     0.477930000000    -0.0890749  
C277     C      0.970220000000     0.734840000000     0.496160000000    -0.0344967  
C278     C      0.970200000000     0.767150000000     0.496930000000    -0.0299122  
C279     C      0.998130000000     0.718260000000     0.498140000000    -0.00374874 
C280     C      0.017840000000     0.667200000000     0.517400000000    -0.0883843  
C281     C      0.998090000000     0.783630000000     0.499750000000    -0.0107454  
C282     C      0.979000000000     0.835330000000     0.481740000000    -0.097979   
C283     C      0.026000000000     0.767050000000     0.501510000000    -0.0289659  
C284     C      0.979570000000     0.867540000000     0.483150000000     0.0792273  
C285     C      0.017450000000     0.866010000000     0.522980000000     0.189872   
C286     C      0.026030000000     0.734770000000     0.500700000000    -0.0335171  
C287     C      0.998180000000     0.683890000000     0.497790000000     0.0495092  
C288     C      0.998120000000     0.817970000000     0.501080000000     0.0694687  
C289     C      0.019680000000     0.333830000000     0.475920000000    -0.127264   
C290     C      0.980500000000     0.135250000000     0.518540000000     0.0733163  
C291     C      0.017830000000     0.134690000000     0.478390000000     0.0735737  
C292     C      0.980400000000     0.167540000000     0.518590000000    -0.0877524  
C293     C      0.972120000000     0.235020000000     0.500850000000    -0.0341345  
C294     C      0.972410000000     0.267330000000     0.500580000000    -0.0309982  
C295     C      0.999800000000     0.218190000000     0.497970000000    -0.00380517 
C296     C      0.018340000000     0.166980000000     0.477860000000    -0.08802    
C297     C      0.000400000000     0.283580000000     0.497420000000    -0.0093954  
C298     C      0.982010000000     0.335140000000     0.516610000000    -0.100564   
C299     C      0.028090000000     0.266750000000     0.494670000000    -0.0303434  
C300     C      0.982620000000     0.367370000000     0.515550000000     0.0779881  
C301     C      0.019930000000     0.366220000000     0.475180000000     0.18905    
C302     C      0.027790000000     0.234450000000     0.494930000000    -0.0330443  
C303     C      0.999500000000     0.183830000000     0.498130000000     0.0498432  
C304     C      0.000710000000     0.317950000000     0.496700000000     0.0706998  
C305     C      0.831040000000     0.022820000000     0.518890000000    -0.12702    
C306     C      0.632610000000     0.979080000000     0.515560000000     0.0722321  
C307     C      0.632390000000     0.019100000000     0.478090000000     0.072654   
C308     C      0.664900000000     0.979090000000     0.516000000000    -0.0887862  
C309     C      0.732660000000     0.972400000000     0.498490000000    -0.0354472  
C310     C      0.764970000000     0.972890000000     0.499170000000    -0.0301673  
C311     C      0.715710000000     0.000140000000     0.497560000000    -0.00171534 
C312     C      0.664690000000     0.019780000000     0.478030000000    -0.0883718  
C313     C      0.781070000000     0.001130000000     0.499050000000    -0.00993277 
C314     C      0.832830000000     0.981080000000     0.482420000000    -0.0991582  
C315     C      0.764130000000     0.028860000000     0.498040000000    -0.0295371  
C316     C      0.865040000000     0.981970000000     0.483630000000     0.0791621  
C317     C      0.863440000000     0.023300000000     0.519850000000     0.1894     
C318     C      0.731830000000     0.028370000000     0.497250000000    -0.0346841  
C319     C      0.681360000000     0.999630000000     0.497140000000     0.0489122  
C320     C      0.815420000000     0.001670000000     0.500120000000     0.0708014  
C321     C      0.331140000000     0.975810000000     0.478150000000    -0.126879   
C322     C      0.132380000000     0.020240000000     0.478980000000     0.0734879  
C323     C      0.132550000000     0.981750000000     0.518030000000     0.0734667  
C324     C      0.164700000000     0.020260000000     0.478300000000    -0.089259   
C325     C      0.232750000000     0.027440000000     0.495460000000    -0.0334364  
C326     C      0.265080000000     0.026770000000     0.495150000000    -0.0295197  
C327     C      0.215670000000     0.999840000000     0.497230000000    -0.00409087 
C328     C      0.164830000000     0.981110000000     0.517860000000    -0.0888847  
C329     C      0.281020000000     0.998460000000     0.496420000000    -0.0102461  
C330     C      0.332650000000     0.018460000000     0.513570000000    -0.0976764  
C331     C      0.263930000000     0.970870000000     0.498100000000    -0.0296592  
C332     C      0.364870000000     0.017120000000     0.513140000000     0.0796772  
C333     C      0.363530000000     0.974880000000     0.477970000000     0.189344   
C334     C      0.231630000000     0.971550000000     0.498550000000    -0.0335029  
C335     C      0.181320000000     0.000470000000     0.497830000000     0.052233   
C336     C      0.315370000000     0.997660000000     0.495980000000     0.0698006  
C337     C      0.017460000000     0.662980000000     0.017460000000    -0.12601    
C338     C      0.976270000000     0.862210000000     0.980630000000     0.0729187  
C339     C      0.015330000000     0.861730000000     0.019110000000     0.0734756  
C340     C      0.975830000000     0.829920000000     0.980060000000    -0.0871673  
C341     C      0.992990000000     0.762360000000     0.971180000000    -0.0347951  
C342     C      0.993180000000     0.730030000000     0.970940000000    -0.0295902  
C343     C      0.995400000000     0.778720000000     0.999190000000    -0.00241653 
C344     C      0.015470000000     0.829430000000     0.019130000000    -0.0873684  
C345     C      0.995820000000     0.713320000000     0.998700000000    -0.0104983  
C346     C      0.977260000000     0.661880000000     0.979280000000    -0.0992745  
C347     C      0.997980000000     0.729680000000     0.026720000000    -0.0295796  
C348     C      0.978490000000     0.629630000000     0.979540000000     0.0786165  
C349     C      0.018410000000     0.630610000000     0.017340000000     0.189728   
C350     C      0.997770000000     0.761990000000     0.026970000000    -0.0344221  
C351     C      0.995560000000     0.813100000000     0.999460000000     0.0492214  
C352     C      0.996780000000     0.678960000000     0.998480000000     0.0691897  
C353     C      0.975830000000     0.163590000000     0.018870000000    -0.126861   
C354     C      0.015810000000     0.361890000000     0.975810000000     0.0745027  
C355     C      0.977060000000     0.362100000000     0.014600000000     0.0747463  
C356     C      0.015850000000     0.329590000000     0.975440000000    -0.0862516  
C357     C      0.023620000000     0.262000000000     0.993280000000    -0.0338092  
C358     C      0.023410000000     0.229690000000     0.994000000000    -0.028628   
C359     C      0.995820000000     0.278770000000     0.995210000000    -0.00230214 
C360     C      0.976500000000     0.329830000000     0.014810000000    -0.0856666  
C361     C      0.995390000000     0.213410000000     0.996690000000    -0.0110619  
C362     C      0.014220000000     0.161550000000     0.978890000000    -0.0989489  
C363     C      0.967580000000     0.230170000000     0.998330000000    -0.029047   
C364     C      0.013570000000     0.129350000000     0.980510000000     0.079055   
C365     C      0.975570000000     0.131220000000     0.020210000000     0.188836   
C366     C      0.967790000000     0.262460000000     0.997590000000    -0.0340329  
C367     C      0.996040000000     0.313140000000     0.995100000000     0.0498131  
C368     C      0.995150000000     0.179080000000     0.998120000000     0.0694694  
C369     C      0.663010000000     0.973750000000     0.017830000000    -0.125279   
C370     C      0.861740000000     0.015510000000     0.018780000000     0.074277   
C371     C      0.862200000000     0.976050000000     0.980710000000     0.0737391  
C372     C      0.829430000000     0.015870000000     0.018590000000    -0.0865649  
C373     C      0.761990000000     0.023340000000     0.999280000000    -0.0336526  
C374     C      0.729660000000     0.023020000000     0.999070000000    -0.0288969  
C375     C      0.778780000000     0.995500000000     0.998910000000    -0.00258722 
C376     C      0.829920000000     0.975690000000     0.980080000000    -0.0875304  
C377     C      0.713430000000     0.994860000000     0.998710000000    -0.010049   
C378     C      0.662140000000     0.014480000000     0.980190000000    -0.0973299  
C379     C      0.730240000000     0.967030000000     0.998330000000    -0.029371   
C380     C      0.629900000000     0.013490000000     0.980500000000     0.0801135  
C381     C      0.630620000000     0.973200000000     0.017910000000     0.188124   
C382     C      0.762540000000     0.967350000000     0.998360000000    -0.0337096  
C383     C      0.813130000000     0.995750000000     0.999160000000     0.0502232  
C384     C      0.679090000000     0.994430000000     0.998940000000     0.0697139  
C385     C      0.328320000000     0.974880000000     0.978170000000    -0.125166   
C386     C      0.129510000000     0.016810000000     0.981500000000     0.0733264  
C387     C      0.129860000000     0.977030000000     0.019220000000     0.0730399  
C388     C      0.161820000000     0.017270000000     0.981080000000    -0.0888798  
C389     C      0.229650000000     0.024760000000     0.998430000000    -0.0333352  
C390     C      0.261980000000     0.024540000000     0.997740000000    -0.02947    
C391     C      0.212930000000     0.996890000000     0.999570000000    -0.00400566 
C392     C      0.162160000000     0.976810000000     0.019290000000    -0.0891692  
C393     C      0.278320000000     0.996430000000     0.998030000000    -0.00952329 
C394     C      0.330080000000     0.016910000000     0.014300000000    -0.0967053  
C395     C      0.261600000000     0.968570000000     0.999260000000    -0.0299442  
C396     C      0.362310000000     0.016030000000     0.013090000000     0.0807631  
C397     C      0.360710000000     0.974440000000     0.977170000000     0.188461   
C398     C      0.229290000000     0.968800000000     0.000060000000    -0.0328818  
C399     C      0.178560000000     0.997060000000     0.000050000000     0.0509647  
C400     C      0.312670000000     0.996100000000     0.996840000000     0.0696311  
C401     C      0.979350000000     0.976280000000     0.832660000000    -0.127354   
C402     C      0.981240000000     0.021900000000     0.634720000000     0.0733169  
C403     C      0.019590000000     0.982710000000     0.634300000000     0.073835   
C404     C      0.981030000000     0.021900000000     0.667030000000    -0.0881296  
C405     C      0.998540000000     0.028400000000     0.734980000000    -0.0365103  
C406     C      0.997990000000     0.027510000000     0.767300000000    -0.0280115  
C407     C      0.000000000000     0.000890000000     0.717710000000    -0.00018948 
C408     C      0.019890000000     0.982060000000     0.666570000000    -0.0879182  
C409     C      0.998730000000     0.999080000000     0.783050000000    -0.0124704  
C410     C      0.015110000000     0.018600000000     0.835120000000    -0.0986163  
C411     C      0.000260000000     0.971590000000     0.765780000000    -0.0272964  
C412     C      0.014020000000     0.017080000000     0.867320000000     0.0797866  
C413     C      0.978520000000     0.975160000000     0.865040000000     0.188933   
C414     C      0.000930000000     0.972480000000     0.733490000000    -0.0356083  
C415     C      0.000390000000     0.001720000000     0.683360000000     0.051633   
C416     C      0.997700000000     0.998030000000     0.817380000000     0.0695704  
C417     C      0.979090000000     0.975850000000     0.333850000000    -0.126883   
C418     C      0.977510000000     0.015660000000     0.134520000000     0.0735062  
C419     C      0.015870000000     0.976500000000     0.134410000000     0.0732384  
C420     C      0.977620000000     0.016270000000     0.166820000000    -0.0867051  
C421     C      0.996380000000     0.024730000000     0.234130000000    -0.0343557  
C422     C      0.996440000000     0.024870000000     0.266460000000    -0.0291767  
C423     C      0.997510000000     0.996680000000     0.217710000000    -0.00277822 
C424     C      0.016490000000     0.976440000000     0.166710000000    -0.087685   
C425     C      0.997490000000     0.996970000000     0.283110000000    -0.0108111  
C426     C      0.014820000000     0.018250000000     0.334180000000    -0.0982205  
C427     C      0.998710000000     0.968930000000     0.266690000000    -0.0297387  
C428     C      0.014290000000     0.017890000000     0.366440000000     0.079801   
C429     C      0.978810000000     0.975900000000     0.366270000000     0.1888     
C430     C      0.998770000000     0.968790000000     0.234370000000    -0.0345178  
C431     C      0.997240000000     0.996490000000     0.183340000000     0.0489429  
C432     C      0.997130000000     0.997060000000     0.317480000000     0.068889   
H1       H      0.532240000000     0.535700000000     0.620010000000     0.0392453  
H2       H      0.530150000000     0.462970000000     0.876010000000     0.0318123  
H3       H      0.498620000000     0.548750000000     0.719510000000     0.0438169  
H4       H      0.498840000000     0.449010000000     0.776220000000     0.0414834  
H5       H      0.531740000000     0.462880000000     0.820420000000     0.0592447  
H6       H      0.500090000000     0.448860000000     0.719810000000     0.0429772  
H7       H      0.463590000000     0.535140000000     0.818270000000     0.0840164  
H8       H      0.532660000000     0.535930000000     0.676070000000     0.0586544  
H9       H      0.466270000000     0.461480000000     0.676210000000     0.0591377  
H10      H      0.498370000000     0.548900000000     0.775940000000     0.0441429  
H11      H      0.466650000000     0.461510000000     0.620210000000     0.0392261  
H12      H      0.462950000000     0.529060000000     0.375760000000     0.0390007  
H13      H      0.533790000000     0.526520000000     0.119790000000     0.0318968  
H14      H      0.450170000000     0.494080000000     0.277020000000     0.0438304  
H15      H      0.549600000000     0.494960000000     0.219740000000     0.040998   
H16      H      0.534940000000     0.527720000000     0.175420000000     0.0593447  
H17      H      0.550060000000     0.496480000000     0.276200000000     0.0420936  
H18      H      0.463660000000     0.458590000000     0.178450000000     0.0844567  
H19      H      0.462930000000     0.528940000000     0.319750000000     0.0589768  
H20      H      0.537800000000     0.463030000000     0.320470000000     0.0564521  
H21      H      0.449710000000     0.493510000000     0.220630000000     0.0452463  
H22      H      0.537550000000     0.463930000000     0.376540000000     0.0320726  
H23      H      0.465250000000     0.875780000000     0.459990000000     0.0395827  
H24      H      0.531260000000     0.619870000000     0.531070000000     0.0376527  
H25      H      0.449140000000     0.776690000000     0.492230000000     0.0444356  
H26      H      0.548090000000     0.719120000000     0.499760000000     0.0419104  
H27      H      0.531980000000     0.675440000000     0.531790000000     0.0609222  
H28      H      0.548780000000     0.775510000000     0.499690000000     0.0421404  
H29      H      0.463690000000     0.677320000000     0.459620000000     0.0837897  
H30      H      0.464900000000     0.819800000000     0.459640000000     0.0591804  
H31      H      0.534020000000     0.819570000000     0.531600000000     0.0563098  
H32      H      0.448450000000     0.720340000000     0.492300000000     0.0445097  
H33      H      0.534250000000     0.875590000000     0.531030000000     0.0321292  
H34      H      0.465420000000     0.375670000000     0.532820000000     0.0386766  
H35      H      0.532020000000     0.119440000000     0.463930000000     0.0317511  
H36      H      0.449790000000     0.276890000000     0.499810000000     0.0440025  
H37      H      0.548690000000     0.218960000000     0.494700000000     0.0406535  
H38      H      0.533030000000     0.175000000000     0.462730000000     0.0588137  
H39      H      0.549570000000     0.275370000000     0.494500000000     0.0417886  
H40      H      0.463400000000     0.177840000000     0.533570000000     0.0835744  
H41      H      0.464930000000     0.319730000000     0.532820000000     0.0587778  
H42      H      0.535740000000     0.319720000000     0.462520000000     0.0559402  
H43      H      0.448930000000     0.220550000000     0.500040000000     0.0442086  
H44      H      0.536110000000     0.375770000000     0.463450000000     0.0320508  
H45      H      0.529940000000     0.617280000000     0.036520000000     0.0325717  
H46      H      0.461880000000     0.873080000000     0.966610000000     0.0444309  
H47      H      0.496230000000     0.716610000000     0.052240000000     0.0434715  
H48      H      0.492230000000     0.773540000000     0.952700000000     0.0437698  
H49      H      0.460420000000     0.817540000000     0.966790000000     0.0637599  
H50      H      0.492070000000     0.717170000000     0.952420000000     0.044356   
H51      H      0.529000000000     0.815900000000     0.038700000000     0.0843804  
H52      H      0.529670000000     0.673320000000     0.037350000000     0.0572572  
H53      H      0.459160000000     0.673380000000     0.966770000000     0.0592602  
H54      H      0.496200000000     0.772990000000     0.052560000000     0.0448943  
H55      H      0.460240000000     0.617380000000     0.966150000000     0.03952    
H56      H      0.533940000000     0.374360000000     0.959330000000     0.0323437  
H57      H      0.463970000000     0.118240000000     0.026630000000     0.0384603  
H58      H      0.548970000000     0.273520000000     0.988190000000     0.0431019  
H59      H      0.448970000000     0.217710000000     0.995360000000     0.042578   
H60      H      0.464240000000     0.173800000000     0.027150000000     0.0619646  
H61      H      0.449370000000     0.274060000000     0.996220000000     0.0444792  
H62      H      0.532330000000     0.174230000000     0.954760000000     0.0834663  
H63      H      0.533970000000     0.318320000000     0.957400000000     0.0567592  
H64      H      0.465010000000     0.316500000000     0.029480000000     0.0606572  
H65      H      0.548570000000     0.217130000000     0.987320000000     0.0441729  
H66      H      0.465090000000     0.372430000000     0.030490000000     0.0449784  
H67      H      0.461640000000     0.029370000000     0.619120000000     0.0390404  
H68      H      0.532860000000     0.024430000000     0.875020000000     0.0393532  
H69      H      0.448020000000     0.994150000000     0.717990000000     0.0440191  
H70      H      0.547600000000     0.992950000000     0.775020000000     0.042052   
H71      H      0.533680000000     0.025800000000     0.819430000000     0.0621643  
H72      H      0.547930000000     0.994770000000     0.718590000000     0.0426446  
H73      H      0.461240000000     0.957890000000     0.816570000000     0.0845089  
H74      H      0.461390000000     0.028940000000     0.675180000000     0.0592474  
H75      H      0.534990000000     0.961630000000     0.674340000000     0.0567418  
H76      H      0.447690000000     0.993240000000     0.774410000000     0.0456735  
H77      H      0.534950000000     0.962810000000     0.618320000000     0.0324022  
H78      H      0.463230000000     0.965280000000     0.374230000000     0.0384997  
H79      H      0.531010000000     0.969780000000     0.119390000000     0.0437029  
H80      H      0.446550000000     0.001020000000     0.275980000000     0.0443683  
H81      H      0.545320000000     0.005820000000     0.217770000000     0.0429896  
H82      H      0.532240000000     0.970550000000     0.174940000000     0.0636407  
H83      H      0.546380000000     0.004850000000     0.274220000000     0.0427775  
H84      H      0.457040000000     0.035470000000     0.175840000000     0.0839221  
H85      H      0.462170000000     0.966410000000     0.318240000000     0.0589341  
H86      H      0.532420000000     0.037210000000     0.318940000000     0.0568409  
H87      H      0.445540000000     0.001120000000     0.219540000000     0.0450853  
H88      H      0.533220000000     0.035340000000     0.375000000000     0.0322085  
H89      H      0.877910000000     0.464530000000     0.531120000000     0.0317306  
H90      H      0.621390000000     0.467810000000     0.462360000000     0.0314587  
H91      H      0.778720000000     0.497210000000     0.546940000000     0.0420017  
H92      H      0.720640000000     0.501530000000     0.448050000000     0.0406206  
H93      H      0.677010000000     0.467120000000     0.461190000000     0.0587853  
H94      H      0.777090000000     0.500840000000     0.447090000000     0.0417235  
H95      H      0.679470000000     0.532120000000     0.536290000000     0.0830515  
H96      H      0.821890000000     0.463730000000     0.531610000000     0.0558475  
H97      H      0.820890000000     0.534300000000     0.461120000000     0.0561562  
H98      H      0.722310000000     0.497010000000     0.547860000000     0.0432161  
H99      H      0.876940000000     0.534330000000     0.460870000000     0.0318689  
H100     H      0.121340000000     0.535910000000     0.533040000000     0.032118   
H101     H      0.377980000000     0.529280000000     0.462470000000     0.0382604  
H102     H      0.220460000000     0.501920000000     0.547700000000     0.0431928  
H103     H      0.277900000000     0.498690000000     0.448410000000     0.0420017  
H104     H      0.322430000000     0.531450000000     0.461780000000     0.0616142  
H105     H      0.221510000000     0.500580000000     0.447790000000     0.0429672  
H106     H      0.318830000000     0.465180000000     0.535720000000     0.0838581  
H107     H      0.177410000000     0.536050000000     0.533520000000     0.0566815  
H108     H      0.177540000000     0.467430000000     0.461120000000     0.0587658  
H109     H      0.276870000000     0.500990000000     0.548300000000     0.0443972  
H110     H      0.121550000000     0.468070000000     0.460880000000     0.0384825  
H111     H      0.619120000000     0.532000000000     0.032820000000     0.0322634  
H112     H      0.876340000000     0.529760000000     0.960180000000     0.0315329  
H113     H      0.718900000000     0.500890000000     0.045570000000     0.0428787  
H114     H      0.775760000000     0.499270000000     0.945900000000     0.0406891  
H115     H      0.820670000000     0.531950000000     0.959300000000     0.0588051  
H116     H      0.719280000000     0.500160000000     0.945640000000     0.0416745  
H117     H      0.816890000000     0.465340000000     0.032910000000     0.0841813  
H118     H      0.675100000000     0.533850000000     0.032230000000     0.0564838  
H119     H      0.675950000000     0.466130000000     0.958990000000     0.0564215  
H120     H      0.775260000000     0.500990000000     0.045800000000     0.0446311  
H121     H      0.619920000000     0.465100000000     0.959800000000     0.0321969  
H122     H      0.119440000000     0.460070000000     0.962080000000     0.0396856  
H123     H      0.375640000000     0.530450000000     0.967170000000     0.0382717  
H124     H      0.218590000000     0.444710000000     0.995210000000     0.0439532  
H125     H      0.276060000000     0.543900000000     0.000020000000     0.0429906  
H126     H      0.320030000000     0.531260000000     0.966010000000     0.0620401  
H127     H      0.219610000000     0.544530000000     0.999060000000     0.0442936  
H128     H      0.317510000000     0.455780000000     0.030570000000     0.0847245  
H129     H      0.175460000000     0.459730000000     0.961690000000     0.0592395  
H130     H      0.175750000000     0.530310000000     0.032190000000     0.0593415  
H131     H      0.274990000000     0.444120000000     0.995220000000     0.0448687  
H132     H      0.119700000000     0.530430000000     0.031780000000     0.0396641  
H133     H      0.033040000000     0.536310000000     0.618690000000     0.0321166  
H134     H      0.961000000000     0.528980000000     0.875260000000     0.0314904  
H135     H      0.047340000000     0.503720000000     0.717910000000     0.0427248  
H136     H      0.947790000000     0.497820000000     0.774690000000     0.040444   
H137     H      0.960100000000     0.531140000000     0.819600000000     0.0587535  
H138     H      0.947520000000     0.499150000000     0.718210000000     0.0413174  
H139     H      0.035880000000     0.467030000000     0.815860000000     0.08359    
H140     H      0.032510000000     0.537050000000     0.674700000000     0.0563152  
H141     H      0.962370000000     0.466130000000     0.674360000000     0.0559678  
H142     H      0.047540000000     0.503330000000     0.774280000000     0.0440024  
H143     H      0.963120000000     0.466190000000     0.618290000000     0.0317229  
H144     H      0.034520000000     0.466320000000     0.374760000000     0.0393028  
H145     H      0.029210000000     0.532100000000     0.117810000000     0.0387648  
H146     H      0.000590000000     0.449600000000     0.276320000000     0.0452256  
H147     H      0.996030000000     0.547750000000     0.217070000000     0.042266   
H148     H      0.030180000000     0.534010000000     0.173410000000     0.061607   
H149     H      0.997150000000     0.549400000000     0.273520000000     0.042262   
H150     H      0.965090000000     0.459050000000     0.177200000000     0.0844621  
H151     H      0.034660000000     0.465350000000     0.318780000000     0.0588679  
H152     H      0.964230000000     0.535980000000     0.317980000000     0.0564624  
H153     H      0.000390000000     0.447990000000     0.219950000000     0.0457802  
H154     H      0.964890000000     0.536730000000     0.374070000000     0.031994   
H155     H      0.033240000000     0.623020000000     0.532460000000     0.0321222  
H156     H      0.964430000000     0.879710000000     0.467290000000     0.0392047  
H157     H      0.047970000000     0.722740000000     0.501740000000     0.0425897  
H158     H      0.948270000000     0.779220000000     0.495930000000     0.0413474  
H159     H      0.963950000000     0.824140000000     0.465130000000     0.061204   
H160     H      0.948290000000     0.722820000000     0.494600000000     0.0417417  
H161     H      0.031840000000     0.820680000000     0.537610000000     0.0832821  
H162     H      0.033050000000     0.678970000000     0.533460000000     0.0564621  
H163     H      0.963280000000     0.679380000000     0.462120000000     0.0558527  
H164     H      0.047930000000     0.779070000000     0.503150000000     0.0439817  
H165     H      0.963570000000     0.623340000000     0.462080000000     0.0318173  
H166     H      0.032750000000     0.122620000000     0.462240000000     0.0322549  
H167     H      0.967700000000     0.379390000000     0.531730000000     0.0315188  
H168     H      0.049570000000     0.222200000000     0.493180000000     0.0423965  
H169     H      0.950630000000     0.279590000000     0.502290000000     0.0411757  
H170     H      0.967190000000     0.323790000000     0.533320000000     0.0588689  
H171     H      0.950120000000     0.223200000000     0.502790000000     0.0428816  
H172     H      0.034010000000     0.321040000000     0.459810000000     0.08344    
H173     H      0.033160000000     0.178640000000     0.461370000000     0.0566945  
H174     H      0.965740000000     0.179620000000     0.534920000000     0.0578224  
H175     H      0.050090000000     0.278560000000     0.492710000000     0.0439132  
H176     H      0.965430000000     0.123640000000     0.534880000000     0.0387441  
H177     H      0.620450000000     0.035060000000     0.462870000000     0.0319768  
H178     H      0.877230000000     0.965420000000     0.469260000000     0.037718   
H179     H      0.719460000000     0.050140000000     0.496840000000     0.0426301  
H180     H      0.777340000000     0.951140000000     0.500200000000     0.0413605  
H181     H      0.821670000000     0.964520000000     0.467290000000     0.0611282  
H182     H      0.720940000000     0.950260000000     0.498430000000     0.042052   
H183     H      0.818040000000     0.038820000000     0.533160000000     0.0833545  
H184     H      0.676500000000     0.035790000000     0.462810000000     0.0561195  
H185     H      0.676860000000     0.963370000000     0.531420000000     0.056094   
H186     H      0.775860000000     0.050990000000     0.497610000000     0.0436971  
H187     H      0.620860000000     0.962870000000     0.530670000000     0.0320726  
H188     H      0.120800000000     0.966380000000     0.533980000000     0.0384904  
H189     H      0.376980000000     0.033920000000     0.527290000000     0.0386918  
H190     H      0.219150000000     0.949860000000     0.499620000000     0.0439381  
H191     H      0.277600000000     0.048410000000     0.493590000000     0.0423354  
H192     H      0.321350000000     0.035530000000     0.528020000000     0.0615699  
H193     H      0.221130000000     0.049620000000     0.494700000000     0.0422636  
H194     H      0.318260000000     0.959510000000     0.464130000000     0.0837279  
H195     H      0.176770000000     0.965740000000     0.533630000000     0.0588466  
H196     H      0.176550000000     0.035380000000     0.462220000000     0.0570156  
H197     H      0.275520000000     0.948710000000     0.499420000000     0.0445436  
H198     H      0.120450000000     0.035810000000     0.463350000000     0.0322824  
H199     H      0.031190000000     0.873390000000     0.034650000000     0.0322945  
H200     H      0.962570000000     0.617680000000     0.964290000000     0.0319621  
H201     H      0.999110000000     0.773850000000     0.048990000000     0.0424115  
H202     H      0.991890000000     0.718130000000     0.948930000000     0.0413242  
H203     H      0.960690000000     0.673310000000     0.964370000000     0.0590855  
H204     H      0.991550000000     0.774530000000     0.949330000000     0.043348   
H205     H      0.033320000000     0.675700000000     0.032130000000     0.0834583  
H206     H      0.031410000000     0.817370000000     0.034230000000     0.0566762  
H207     H      0.959790000000     0.818260000000     0.964760000000     0.0580195  
H208     H      0.999520000000     0.717500000000     0.048560000000     0.0435026  
H209     H      0.960520000000     0.874240000000     0.965270000000     0.0392372  
H210     H      0.961610000000     0.374010000000     0.030360000000     0.0448737  
H211     H      0.028800000000     0.117050000000     0.964830000000     0.0317597  
H212     H      0.945930000000     0.274650000000     0.998570000000     0.0445721  
H213     H      0.045260000000     0.217470000000     0.993090000000     0.0411847  
H214     H      0.029350000000     0.172600000000     0.962260000000     0.0590655  
H215     H      0.045640000000     0.273860000000     0.991860000000     0.0430179  
H216     H      0.961190000000     0.176680000000     0.034440000000     0.0839528  
H217     H      0.961120000000     0.318070000000     0.030710000000     0.0608297  
H218     H      0.031080000000     0.317620000000     0.959550000000     0.0579139  
H219     H      0.945580000000     0.218310000000     0.999870000000     0.0443891  
H220     H      0.031460000000     0.373660000000     0.960150000000     0.0381915  
H221     H      0.874220000000     0.960170000000     0.965470000000     0.0382865  
H222     H      0.618040000000     0.029650000000     0.965420000000     0.0385554  
H223     H      0.774810000000     0.945510000000     0.998340000000     0.0437414  
H224     H      0.717350000000     0.044830000000     0.999610000000     0.0428661  
H225     H      0.673720000000     0.030660000000     0.964960000000     0.0617734  
H226     H      0.773860000000     0.045390000000     0.999430000000     0.0440169  
H227     H      0.675660000000     0.958080000000     0.032770000000     0.0843919  
H228     H      0.818210000000     0.960010000000     0.964440000000     0.0587152  
H229     H      0.817320000000     0.031530000000     0.033960000000     0.0589645  
H230     H      0.718400000000     0.944970000000     0.997750000000     0.0452171  
H231     H      0.873410000000     0.031390000000     0.034290000000     0.0388978  
H232     H      0.118160000000     0.960980000000     0.034530000000     0.0324548  
H233     H      0.374500000000     0.032650000000     0.027380000000     0.0393634  
H234     H      0.217120000000     0.946920000000     0.000640000000     0.0431907  
H235     H      0.274170000000     0.046380000000     0.996550000000     0.0422395  
H236     H      0.318900000000     0.033570000000     0.029310000000     0.0619109  
H237     H      0.217740000000     0.046790000000     0.998330000000     0.0422925  
H238     H      0.315330000000     0.958830000000     0.963960000000     0.0845661  
H239     H      0.174190000000     0.961060000000     0.034620000000     0.0569466  
H240     H      0.173560000000     0.033060000000     0.965580000000     0.0569572  
H241     H      0.273500000000     0.946540000000     0.999840000000     0.0450273  
H242     H      0.117530000000     0.032750000000     0.966290000000     0.0323534  
H243     H      0.035070000000     0.967060000000     0.622290000000     0.0395065  
H244     H      0.028100000000     0.033670000000     0.879800000000     0.0318113  
H245     H      0.001750000000     0.950860000000     0.720870000000     0.0449681  
H246     H      0.996560000000     0.049080000000     0.779950000000     0.0406682  
H247     H      0.029910000000     0.035620000000     0.824210000000     0.0593627  
H248     H      0.998100000000     0.050660000000     0.723510000000     0.0427947  
H249     H      0.965380000000     0.960230000000     0.819420000000     0.0836908  
H250     H      0.035530000000     0.966380000000     0.678280000000     0.0588942  
H251     H      0.965350000000     0.037270000000     0.679100000000     0.0585833  
H252     H      0.001200000000     0.949330000000     0.777230000000     0.044109   
H253     H      0.965710000000     0.037740000000     0.623030000000     0.0382822  
H254     H      0.031250000000     0.960660000000     0.122520000000     0.0322795  
H255     H      0.028560000000     0.034930000000     0.378060000000     0.0320422  
H256     H      0.999380000000     0.946790000000     0.222420000000     0.0425305  
H257     H      0.995230000000     0.046840000000     0.278430000000     0.0414159  
H258     H      0.029410000000     0.034880000000     0.322420000000     0.0594969  
H259     H      0.995710000000     0.046620000000     0.221980000000     0.0434438  
H260     H      0.964910000000     0.959330000000     0.321430000000     0.083364   
H261     H      0.032270000000     0.961000000000     0.178560000000     0.0563815  
H262     H      0.962080000000     0.031880000000     0.178760000000     0.058709   
H263     H      0.999870000000     0.947060000000     0.278830000000     0.0436445  
H264     H      0.961870000000     0.031320000000     0.122720000000     0.0392009  
N1       N      0.496170000000     0.499210000000     0.880110000000    -0.196591   
N2       N      0.499440000000     0.498600000000     0.615880000000    -0.182216   
N3       N      0.497850000000     0.492170000000     0.116170000000    -0.195819   
N4       N      0.500210000000     0.496490000000     0.380380000000    -0.183115   
N5       N      0.496860000000     0.615640000000     0.495230000000    -0.195775   
N6       N      0.499730000000     0.879910000000     0.495540000000    -0.183063   
N7       N      0.496920000000     0.115680000000     0.499140000000    -0.196457   
N8       N      0.500760000000     0.379950000000     0.498120000000    -0.183112   
N9       N      0.496030000000     0.877450000000     0.002680000000    -0.193924   
N10      N      0.495180000000     0.613110000000     0.001240000000    -0.18284    
N11      N      0.498240000000     0.113260000000     0.990780000000    -0.195505   
N12      N      0.499480000000     0.377630000000     0.994970000000    -0.182239   
N13      N      0.496360000000     0.990670000000     0.878790000000    -0.194698   
N14      N      0.498280000000     0.996130000000     0.614480000000    -0.183066   
N15      N      0.493220000000     0.001960000000     0.114620000000    -0.194749   
N16      N      0.498280000000     0.000220000000     0.378840000000    -0.182515   
N17      N      0.617480000000     0.500190000000     0.500060000000    -0.196613   
N18      N      0.881650000000     0.499510000000     0.496010000000    -0.18402    
N19      N      0.381370000000     0.496210000000     0.499630000000    -0.195801   
N20      N      0.117220000000     0.501990000000     0.496960000000    -0.183282   
N21      N      0.879530000000     0.496540000000     0.997180000000    -0.195809   
N22      N      0.615290000000     0.498380000000     0.996420000000    -0.183825   
N23      N      0.379530000000     0.492570000000     0.999340000000    -0.195157   
N24      N      0.115350000000     0.495230000000     0.996960000000    -0.182156   
N25      N      0.999060000000     0.496970000000     0.878480000000    -0.196723   
N26      N      0.998170000000     0.501180000000     0.614260000000    -0.184208   
N27      N      0.996770000000     0.494390000000     0.114570000000    -0.195307   
N28      N      0.999660000000     0.501530000000     0.378630000000    -0.183473   
N29      N      0.998720000000     0.883130000000     0.503320000000    -0.195995   
N30      N      0.998440000000     0.618950000000     0.497210000000    -0.184333   
N31      N      0.001360000000     0.383150000000     0.495160000000    -0.196431   
N32      N      0.999090000000     0.118900000000     0.498620000000    -0.183378   
N33      N      0.880600000000     0.002770000000     0.502110000000    -0.195648   
N34      N      0.616420000000     0.998940000000     0.496760000000    -0.184097   
N35      N      0.380550000000     0.995720000000     0.495470000000    -0.196032   
N36      N      0.116400000000     0.001100000000     0.498670000000    -0.183018   
N37      N      0.998690000000     0.613760000000     0.998410000000    -0.196645   
N38      N      0.995870000000     0.878040000000     0.000020000000    -0.183119   
N39      N      0.994450000000     0.113930000000     0.000830000000    -0.1968     
N40      N      0.996580000000     0.378050000000     0.995270000000    -0.182009   
N41      N      0.613910000000     0.993230000000     0.999210000000    -0.195256   
N42      N      0.878040000000     0.995750000000     0.999970000000    -0.182773   
N43      N      0.377880000000     0.995010000000     0.994870000000    -0.194785   
N44      N      0.113610000000     0.996810000000     0.000390000000    -0.183897   
N45      N      0.995900000000     0.995720000000     0.882530000000    -0.197092   
N46      N      0.000300000000     0.002370000000     0.618440000000    -0.181288   
N47      N      0.996460000000     0.997090000000     0.382710000000    -0.196791   
N48      N      0.996510000000     0.995950000000     0.118390000000    -0.183356   
O1       O      0.995880000000     0.995860000000     0.000620000000    -0.369002   
O2       O      0.067310000000     0.978050000000     0.018260000000    -0.300874   
O3       O      0.013700000000     0.014230000000     0.929140000000    -0.300858   
O4       O      0.977820000000     0.924650000000     0.982370000000    -0.295873   
O5       O      0.066960000000     0.014790000000     0.982610000000    -0.300508   
O6       O      0.014210000000     0.924360000000     0.018350000000    -0.300083   
O7       O      0.978130000000     0.977820000000     0.929470000000    -0.28021    
O8       O      0.924340000000     0.013660000000     0.018690000000    -0.294862   
O9       O      0.013070000000     0.067560000000     0.982580000000    -0.301739   
O10      O      0.924660000000     0.977760000000     0.982240000000    -0.29646    
O11      O      0.977320000000     0.066780000000     0.018810000000    -0.280171   
O12      O      0.977910000000     0.013710000000     0.071990000000    -0.294826   
O13      O      0.014280000000     0.977690000000     0.071840000000    -0.300207   
O14      O      0.998680000000     0.001230000000     0.500660000000    -0.369379   
O15      O      0.016290000000     0.072120000000     0.480390000000    -0.299982   
O16      O      0.927930000000     0.020330000000     0.519290000000    -0.279602   
O17      O      0.979410000000     0.980970000000     0.430570000000    -0.279743   
O18      O      0.981590000000     0.072780000000     0.518020000000    -0.295602   
O19      O      0.015200000000     0.017130000000     0.428320000000    -0.300097   
O20      O      0.926820000000     0.983320000000     0.484360000000    -0.297254   
O21      O      0.017170000000     0.930400000000     0.519560000000    -0.279328   
O22      O      0.981690000000     0.020330000000     0.572100000000    -0.295379   
O23      O      0.979710000000     0.929360000000     0.485130000000    -0.295856   
O24      O      0.017870000000     0.984160000000     0.571840000000    -0.294995   
O25      O      0.070150000000     0.983590000000     0.517740000000    -0.297027   
O26      O      0.069720000000     0.018900000000     0.480690000000    -0.300471   
O27      O      0.997570000000     0.495850000000     0.996430000000    -0.370658   
O28      O      0.015270000000     0.424480000000     0.977660000000    -0.294688   
O29      O      0.979290000000     0.476970000000     0.067340000000    -0.275232   
O30      O      0.068920000000     0.513320000000     0.015180000000    -0.294112   
O31      O      0.978910000000     0.424530000000     0.013640000000    -0.290256   
O32      O      0.068850000000     0.477390000000     0.978750000000    -0.294366   
O33      O      0.015310000000     0.512890000000     0.068270000000    -0.295805   
O34      O      0.980120000000     0.567690000000     0.979170000000    -0.300194   
O35      O      0.926560000000     0.478340000000     0.014250000000    -0.276721   
O36      O      0.015800000000     0.566320000000     0.015490000000    -0.279222   
O37      O      0.926050000000     0.514540000000     0.978450000000    -0.300637   
O38      O      0.980000000000     0.514670000000     0.924960000000    -0.30086    
O39      O      0.016030000000     0.478680000000     0.925520000000    -0.279736   
O40      O      0.999360000000     0.501260000000     0.496470000000    -0.368127   
O41      O      0.982470000000     0.429230000000     0.513950000000    -0.303066   
O42      O      0.017780000000     0.483800000000     0.425180000000    -0.295462   
O43      O      0.927890000000     0.518490000000     0.478200000000    -0.301458   
O44      O      0.018390000000     0.430590000000     0.477910000000    -0.280882   
O45      O      0.928340000000     0.481840000000     0.513930000000    -0.301809   
O46      O      0.981280000000     0.519640000000     0.425020000000    -0.30115    
O47      O      0.016850000000     0.572480000000     0.514880000000    -0.301491   
O48      O      0.070880000000     0.484170000000     0.478360000000    -0.296644   
O49      O      0.980570000000     0.572530000000     0.478770000000    -0.301781   
O50      O      0.070620000000     0.519630000000     0.515240000000    -0.301271   
O51      O      0.016680000000     0.519210000000     0.567940000000    -0.301099   
O52      O      0.980980000000     0.482530000000     0.567640000000    -0.301388   
O53      O      0.495900000000     0.995450000000     0.996760000000    -0.371594   
O54      O      0.425150000000     0.976130000000     0.979070000000    -0.274648   
O55      O      0.476260000000     0.017570000000     0.066470000000    -0.278114   
O56      O      0.512910000000     0.925250000000     0.019200000000    -0.27412    
O57      O      0.424170000000     0.014930000000     0.012010000000    -0.293662   
O58      O      0.478510000000     0.923120000000     0.981760000000    -0.290757   
O59      O      0.512050000000     0.981470000000     0.069330000000    -0.29244    
O60      O      0.568040000000     0.011040000000     0.978940000000    -0.295197   
O61      O      0.478400000000     0.067890000000     0.010270000000    -0.29548    
O62      O      0.566300000000     0.977670000000     0.017350000000    -0.275558   
O63      O      0.515730000000     0.065190000000     0.975710000000    -0.278642   
O64      O      0.515060000000     0.009760000000     0.924820000000    -0.2941     
O65      O      0.478470000000     0.974390000000     0.926320000000    -0.274538   
O66      O      0.498680000000     0.997680000000     0.496660000000    -0.368533   
O67      O      0.426690000000     0.014360000000     0.514300000000    -0.295812   
O68      O      0.481020000000     0.980680000000     0.425020000000    -0.296273   
O69      O      0.515760000000     0.069660000000     0.480230000000    -0.302107   
O70      O      0.427920000000     0.978720000000     0.477980000000    -0.279957   
O71      O      0.479370000000     0.068180000000     0.515820000000    -0.279876   
O72      O      0.516460000000     0.017590000000     0.425600000000    -0.300276   
O73      O      0.570110000000     0.980090000000     0.514420000000    -0.301951   
O74      O      0.481730000000     0.926390000000     0.477440000000    -0.295255   
O75      O      0.569810000000     0.017040000000     0.479000000000    -0.301044   
O76      O      0.517370000000     0.926340000000     0.514170000000    -0.301383   
O77      O      0.517000000000     0.979210000000     0.567820000000    -0.30096    
O78      O      0.479620000000     0.014160000000     0.568180000000    -0.294204   
O79      O      0.497660000000     0.495420000000     0.998070000000    -0.369048   
O80      O      0.425520000000     0.512440000000     0.981400000000    -0.296106   
O81      O      0.481220000000     0.423440000000     0.014360000000    -0.290535   
O82      O      0.514950000000     0.479830000000     0.925960000000    -0.302138   
O83      O      0.427060000000     0.475250000000     0.016090000000    -0.275427   
O84      O      0.478360000000     0.515180000000     0.927760000000    -0.279931   
O85      O      0.516880000000     0.424740000000     0.977680000000    -0.299863   
O86      O      0.568650000000     0.514450000000     0.015950000000    -0.300846   
O87      O      0.480360000000     0.475230000000     0.068760000000    -0.276529   
O88      O      0.569030000000     0.479570000000     0.978460000000    -0.300851   
O89      O      0.515850000000     0.511690000000     0.070030000000    -0.301801   
O90      O      0.514280000000     0.566590000000     0.018210000000    -0.30037    
O91      O      0.477800000000     0.566730000000     0.982310000000    -0.29525    
O92      O      0.499500000000     0.497640000000     0.498100000000    -0.369218   
O93      O      0.427590000000     0.513980000000     0.480200000000    -0.296775   
O94      O      0.482390000000     0.426280000000     0.516170000000    -0.296378   
O95      O      0.519030000000     0.479770000000     0.427090000000    -0.300937   
O96      O      0.428700000000     0.478930000000     0.517080000000    -0.279853   
O97      O      0.480820000000     0.513820000000     0.426590000000    -0.295458   
O98      O      0.519030000000     0.426540000000     0.480430000000    -0.3007     
O99      O      0.569920000000     0.517600000000     0.516680000000    -0.280085   
O100     O      0.482350000000     0.479370000000     0.569520000000    -0.29508    
O101     O      0.571540000000     0.480960000000     0.481350000000    -0.302316   
O102     O      0.516410000000     0.517550000000     0.569310000000    -0.294254   
O103     O      0.515670000000     0.569860000000     0.514760000000    -0.29682    
O104     O      0.479920000000     0.567920000000     0.478580000000    -0.279675   
Zn1      Zn     0.022150000000     0.969680000000     0.026520000000     0.453733   
Zn2      Zn     0.021630000000     0.022370000000     0.974480000000     0.454796   
Zn3      Zn     0.969880000000     0.969810000000     0.974510000000     0.461862   
Zn4      Zn     0.969600000000     0.021640000000     0.026810000000     0.461553   
Zn5      Zn     0.024210000000     0.026640000000     0.473220000000     0.453947   
Zn6      Zn     0.973260000000     0.027850000000     0.526820000000     0.461624   
Zn7      Zn     0.971880000000     0.974470000000     0.476030000000     0.461678   
Zn8      Zn     0.025190000000     0.975650000000     0.526660000000     0.462858   
Zn9      Zn     0.023650000000     0.469790000000     0.970440000000     0.463272   
Zn10     Zn     0.971440000000     0.469670000000     0.022100000000     0.469496   
Zn11     Zn     0.023650000000     0.521240000000     0.023110000000     0.463823   
Zn12     Zn     0.971580000000     0.522440000000     0.970420000000     0.45235    
Zn13     Zn     0.973610000000     0.474400000000     0.522250000000     0.453039   
Zn14     Zn     0.025820000000     0.475790000000     0.470280000000     0.462956   
Zn15     Zn     0.973040000000     0.527250000000     0.470360000000     0.452874   
Zn16     Zn     0.025190000000     0.527340000000     0.522850000000     0.454165   
Zn17     Zn     0.470360000000     0.967980000000     0.971730000000     0.469134   
Zn18     Zn     0.469380000000     0.023230000000     0.020620000000     0.462141   
Zn19     Zn     0.520960000000     0.970740000000     0.024900000000     0.46966    
Zn20     Zn     0.523000000000     0.019560000000     0.969810000000     0.46255    
Zn21     Zn     0.471810000000     0.022790000000     0.522970000000     0.461523   
Zn22     Zn     0.473200000000     0.971600000000     0.470040000000     0.461588   
Zn23     Zn     0.524440000000     0.024710000000     0.471090000000     0.453793   
Zn24     Zn     0.525020000000     0.971590000000     0.522510000000     0.454094   
Zn25     Zn     0.470560000000     0.521640000000     0.973180000000     0.462188   
Zn26     Zn     0.472390000000     0.468160000000     0.023530000000     0.469251   
Zn27     Zn     0.523870000000     0.470510000000     0.970840000000     0.453536   
Zn28     Zn     0.523370000000     0.521260000000     0.024880000000     0.453966   
Zn29     Zn     0.472660000000     0.522480000000     0.471630000000     0.462252   
Zn30     Zn     0.474030000000     0.471300000000     0.524430000000     0.462446   
Zn31     Zn     0.526570000000     0.471970000000     0.472500000000     0.453831   
Zn32     Zn     0.524530000000     0.524970000000     0.523960000000     0.461794   


