data_structure

_audit_creation_method RASPA-1.0
_audit_creation_date 2023-5-19
_audit_author_name 'Poobodin Mano'

_cell_length_a    43.2467
_cell_length_b    43.2482
_cell_length_c    43.2471
_cell_angle_alpha 90
_cell_angle_beta  90
_cell_angle_gamma 90
_cell_volume      80886.9

_symmetry_cell_setting          triclinic
_symmetry_space_group_name_Hall 'P 1'
_symmetry_space_group_name_H-M  'P 1'
_symmetry_Int_Tables_number     1

_symmetry_equiv_pos_as_xyz 'x,y,z'

loop_
_atom_site_label
_atom_site_type_symbol
_atom_site_fract_x
_atom_site_fract_y
_atom_site_fract_z
_atom_site_charge
C1       C      0.000120000000     0.996140000000     0.081150000000     0.367765   
C2       C      0.000550000000     0.910010000000     0.995700000000     0.368898   
C3       C      0.912050000000     0.993330000000     0.997120000000     0.367207   
C4       C      0.996450000000     0.994790000000     0.908960000000     0.366765   
C5       C      0.084260000000     0.999110000000     0.993150000000     0.36668    
C6       C      0.995470000000     0.081910000000     0.994630000000     0.368324   
C7       C      0.998080000000     0.998260000000     0.409140000000     0.367364   
C8       C      0.085890000000     0.995120000000     0.493150000000     0.367725   
C9       C      0.000950000000     0.082300000000     0.497330000000     0.368383   
C10      C      0.001260000000     0.994330000000     0.580980000000     0.368432   
C11      C      0.998740000000     0.909980000000     0.492710000000     0.367508   
C12      C      0.913670000000     0.996860000000     0.496950000000     0.367439   
C13      C      0.994920000000     0.495780000000     0.086680000000     0.368152   
C14      C      0.909230000000     0.499100000000     0.000530000000     0.368839   
C15      C      0.999000000000     0.582060000000     0.001330000000     0.367621   
C16      C      0.994590000000     0.496320000000     0.914700000000     0.368508   
C17      C      0.992250000000     0.409840000000     0.000660000000     0.367858   
C18      C      0.081220000000     0.492650000000     0.000050000000     0.368229   
C19      C      0.997790000000     0.410280000000     0.501500000000     0.367836   
C20      C      0.996390000000     0.494560000000     0.414500000000     0.367619   
C21      C      0.910320000000     0.494710000000     0.501410000000     0.368033   
C22      C      0.994480000000     0.582320000000     0.498890000000     0.368322   
C23      C      0.082510000000     0.498520000000     0.500320000000     0.36834    
C24      C      0.996960000000     0.497940000000     0.586690000000     0.367456   
C25      C      0.412240000000     0.001790000000     0.995970000000     0.368854   
C26      C      0.496030000000     0.001740000000     0.084000000000     0.368431   
C27      C      0.496950000000     0.914690000000     0.998210000000     0.368487   
C28      C      0.584230000000     0.998990000000     0.000120000000     0.368292   
C29      C      0.500250000000     0.086850000000     0.997480000000     0.368131   
C30      C      0.500340000000     0.000740000000     0.911790000000     0.368666   
C31      C      0.413810000000     0.996710000000     0.497530000000     0.368182   
C32      C      0.499850000000     0.998420000000     0.411960000000     0.367922   
C33      C      0.497780000000     0.084520000000     0.498360000000     0.368539   
C34      C      0.585690000000     0.000090000000     0.497810000000     0.369054   
C35      C      0.501520000000     0.912270000000     0.498530000000     0.368208   
C36      C      0.499440000000     0.998340000000     0.584040000000     0.368072   
C37      C      0.409180000000     0.498710000000     0.998130000000     0.368441   
C38      C      0.497240000000     0.499630000000     0.082910000000     0.368458   
C39      C      0.496840000000     0.414830000000     0.996380000000     0.368745   
C40      C      0.581300000000     0.503200000000     0.995210000000     0.367935   
C41      C      0.492600000000     0.586900000000     0.998370000000     0.367775   
C42      C      0.494310000000     0.501650000000     0.910920000000     0.368499   
C43      C      0.496870000000     0.499490000000     0.410810000000     0.369077   
C44      C      0.410390000000     0.498110000000     0.495960000000     0.368894   
C45      C      0.496920000000     0.412410000000     0.495680000000     0.368883   
C46      C      0.494970000000     0.497230000000     0.582950000000     0.368211   
C47      C      0.496580000000     0.584350000000     0.497820000000     0.368648   
C48      C      0.582420000000     0.498490000000     0.497780000000     0.368524   
C49      C      0.475380000000     0.478140000000     0.664260000000    -0.0932401  
C50      C      0.513110000000     0.521490000000     0.863030000000     0.0718296  
C51      C      0.475570000000     0.481540000000     0.863160000000     0.0718393  
C52      C      0.513620000000     0.521470000000     0.830730000000    -0.089027   
C53      C      0.496620000000     0.527960000000     0.762790000000    -0.0342841  
C54      C      0.496720000000     0.527330000000     0.730470000000    -0.0337124  
C55      C      0.495190000000     0.500330000000     0.779860000000    -0.00463109 
C56      C      0.475540000000     0.480900000000     0.830880000000    -0.0896046  
C57      C      0.495360000000     0.499050000000     0.714490000000    -0.00561886 
C58      C      0.514160000000     0.517790000000     0.662950000000    -0.0906186  
C59      C      0.494130000000     0.471430000000     0.731570000000    -0.0337743  
C60      C      0.513560000000     0.516760000000     0.630710000000     0.0705326  
C61      C      0.475090000000     0.477510000000     0.631840000000     0.086869   
C62      C      0.494050000000     0.472060000000     0.763860000000    -0.0341037  
C63      C      0.453830000000     0.455770000000     0.617780000000     0.0464809  
C64      C      0.494760000000     0.500950000000     0.814230000000     0.049763   
C65      C      0.494990000000     0.498340000000     0.680130000000     0.0519034  
C66      C      0.517820000000     0.480650000000     0.163980000000    -0.0932454  
C67      C      0.477300000000     0.519020000000     0.363120000000     0.0714679  
C68      C      0.516480000000     0.480690000000     0.362870000000     0.0715996  
C69      C      0.476910000000     0.519420000000     0.330830000000    -0.0899612  
C70      C      0.493990000000     0.527780000000     0.263160000000    -0.0342259  
C71      C      0.494070000000     0.527690000000     0.230850000000    -0.0339551  
C72      C      0.496500000000     0.499940000000     0.279780000000    -0.00509563 
C73      C      0.516680000000     0.480510000000     0.330590000000    -0.0900592  
C74      C      0.496700000000     0.499780000000     0.214410000000    -0.00553558 
C75      C      0.477230000000     0.518470000000     0.163110000000    -0.0901622  
C76      C      0.499030000000     0.471930000000     0.231020000000    -0.0340134  
C77      C      0.477920000000     0.517890000000     0.130870000000     0.0708874  
C78      C      0.518190000000     0.480460000000     0.131560000000     0.0869827  
C79      C      0.498920000000     0.472010000000     0.263310000000    -0.0341343  
C80      C      0.540560000000     0.460030000000     0.117270000000     0.0463451  
C81      C      0.496700000000     0.499980000000     0.314140000000     0.0497452  
C82      C      0.497230000000     0.499660000000     0.180060000000     0.0519249  
C83      C      0.520670000000     0.830930000000     0.517940000000    -0.0933406  
C84      C      0.477700000000     0.632430000000     0.478570000000     0.0714572  
C85      C      0.516230000000     0.631910000000     0.517560000000     0.0715229  
C86      C      0.477760000000     0.664720000000     0.478350000000    -0.0899292  
C87      C      0.496250000000     0.732030000000     0.470360000000    -0.0343787  
C88      C      0.496900000000     0.764340000000     0.470420000000    -0.0340594  
C89      C      0.497920000000     0.715390000000     0.498250000000    -0.00504533 
C90      C      0.516850000000     0.664190000000     0.517950000000    -0.0899406  
C91      C      0.499270000000     0.780760000000     0.498380000000    -0.00571223 
C92      C      0.481020000000     0.832310000000     0.479170000000    -0.0907473  
C93      C      0.500800000000     0.764130000000     0.526270000000    -0.0340129  
C94      C      0.482140000000     0.864540000000     0.479730000000     0.0705403  
C95      C      0.521480000000     0.863350000000     0.518110000000     0.0866695  
C96      C      0.500130000000     0.731830000000     0.526200000000    -0.0342348  
C97      C      0.543620000000     0.877370000000     0.538970000000     0.046112   
C98      C      0.497490000000     0.681030000000     0.498190000000     0.0496324  
C99      C      0.500310000000     0.815110000000     0.498480000000     0.0518016  
C100     C      0.477640000000     0.165840000000     0.516800000000    -0.0933254  
C101     C      0.516650000000     0.364810000000     0.476070000000     0.0716715  
C102     C      0.477600000000     0.364390000000     0.514530000000     0.0719153  
C103     C      0.517050000000     0.332510000000     0.475540000000    -0.0898135  
C104     C      0.525190000000     0.264830000000     0.492970000000    -0.0343694  
C105     C      0.525180000000     0.232510000000     0.493350000000    -0.0338457  
C106     C      0.497250000000     0.281390000000     0.494700000000    -0.00479739 
C107     C      0.477380000000     0.332120000000     0.514560000000    -0.0892358  
C108     C      0.497240000000     0.216020000000     0.495480000000    -0.00568675 
C109     C      0.516700000000     0.164480000000     0.477420000000    -0.0907635  
C110     C      0.469310000000     0.232580000000     0.496910000000    -0.0338101  
C111     C      0.516290000000     0.132250000000     0.478680000000     0.0705733  
C112     C      0.477620000000     0.133430000000     0.517740000000     0.086894   
C113     C      0.469320000000     0.264870000000     0.496530000000    -0.0341371  
C114     C      0.456600000000     0.119410000000     0.539740000000     0.0464993  
C115     C      0.497230000000     0.315750000000     0.494900000000     0.0497641  
C116     C      0.497200000000     0.181670000000     0.496530000000     0.0519461  
C117     C      0.471750000000     0.668000000000     0.017010000000    -0.0930965  
C118     C      0.515460000000     0.866580000000     0.017750000000     0.0715976  
C119     C      0.476980000000     0.867170000000     0.978710000000     0.0714966  
C120     C      0.515290000000     0.834280000000     0.018000000000    -0.0899357  
C121     C      0.522460000000     0.766680000000     0.999500000000    -0.0344463  
C122     C      0.521860000000     0.734360000000     0.999470000000    -0.034106   
C123     C      0.494800000000     0.783710000000     0.998310000000    -0.00509773 
C124     C      0.476110000000     0.834890000000     0.978490000000    -0.0900674  
C125     C      0.493580000000     0.718380000000     0.998450000000    -0.00555653 
C126     C      0.513420000000     0.667070000000     0.980380000000    -0.0900679  
C127     C      0.465930000000     0.735410000000     0.997320000000    -0.0340086  
C128     C      0.512490000000     0.634840000000     0.980730000000     0.0707676  
C129     C      0.471300000000     0.635570000000     0.017140000000     0.0870218  
C130     C      0.466530000000     0.767710000000     0.997170000000    -0.0342578  
C131     C      0.448190000000     0.621260000000     0.036700000000     0.0462263  
C132     C      0.495420000000     0.818040000000     0.998260000000     0.0496027  
C133     C      0.492930000000     0.684040000000     0.998620000000     0.0516623  
C134     C      0.522380000000     0.168040000000     0.981040000000    -0.0928267  
C135     C      0.516900000000     0.367420000000     0.016020000000     0.0719484  
C136     C      0.477760000000     0.366610000000     0.977660000000     0.0717883  
C137     C      0.517470000000     0.335150000000     0.016730000000    -0.0889767  
C138     C      0.526380000000     0.267670000000     0.999940000000    -0.0344747  
C139     C      0.526870000000     0.235370000000     0.000100000000    -0.0330921  
C140     C      0.498220000000     0.283780000000     0.997780000000    -0.00443373 
C141     C      0.477750000000     0.334310000000     0.977770000000    -0.0896048  
C142     C      0.499230000000     0.218380000000     0.998070000000    -0.00557137 
C143     C      0.478060000000     0.166910000000     0.014390000000    -0.089779   
C144     C      0.471050000000     0.234480000000     0.996040000000    -0.0335013  
C145     C      0.479030000000     0.134670000000     0.013920000000     0.0713473  
C146     C      0.522990000000     0.135630000000     0.980940000000     0.0875648  
C147     C      0.470560000000     0.266790000000     0.995880000000    -0.0342186  
C148     C      0.548050000000     0.121480000000     0.963810000000     0.0489536  
C149     C      0.497770000000     0.318150000000     0.997450000000     0.0495895  
C150     C      0.499840000000     0.184010000000     0.997810000000     0.0520428  
C151     C      0.519600000000     0.019820000000     0.830400000000    -0.0924509  
C152     C      0.518130000000     0.978570000000     0.632000000000     0.0718372  
C153     C      0.479940000000     0.017910000000     0.631720000000     0.0723322  
C154     C      0.518090000000     0.978190000000     0.664300000000    -0.0889939  
C155     C      0.498910000000     0.970710000000     0.731800000000    -0.0342858  
C156     C      0.499020000000     0.971050000000     0.764130000000    -0.0336309  
C157     C      0.498680000000     0.998550000000     0.715010000000    -0.00508237 
C158     C      0.479490000000     0.018280000000     0.664000000000    -0.0884749  
C159     C      0.499180000000     0.999220000000     0.780330000000    -0.0061327  
C160     C      0.480950000000     0.980050000000     0.831870000000    -0.0904844  
C161     C      0.498920000000     0.027040000000     0.763520000000    -0.0330393  
C162     C      0.481710000000     0.981050000000     0.864100000000     0.0702429  
C163     C      0.520180000000     0.020290000000     0.862820000000     0.0872239  
C164     C      0.498570000000     0.026700000000     0.731230000000    -0.0334534  
C165     C      0.541690000000     0.041840000000     0.876760000000     0.0484905  
C166     C      0.498690000000     0.998270000000     0.680690000000     0.0493377  
C167     C      0.499900000000     0.999670000000     0.814640000000     0.0515304  
C168     C      0.477550000000     0.021850000000     0.165360000000    -0.0932579  
C169     C      0.481300000000     0.978260000000     0.364110000000     0.071247   
C170     C      0.517970000000     0.019010000000     0.364130000000     0.071838   
C171     C      0.480760000000     0.978210000000     0.331820000000    -0.0898856  
C172     C      0.498190000000     0.971830000000     0.263970000000    -0.0339215  
C173     C      0.497610000000     0.972290000000     0.231660000000    -0.0350185  
C174     C      0.498600000000     0.999580000000     0.280910000000    -0.00594308 
C175     C      0.517900000000     0.019640000000     0.331840000000    -0.0893762  
C176     C      0.497290000000     0.000520000000     0.215540000000    -0.00485529 
C177     C      0.514820000000     0.980780000000     0.163970000000    -0.0913408  
C178     C      0.497700000000     0.028270000000     0.232470000000    -0.0344734  
C179     C      0.514030000000     0.981670000000     0.131750000000     0.0702608  
C180     C      0.477030000000     0.022310000000     0.132920000000     0.0868539  
C181     C      0.498400000000     0.027800000000     0.264780000000    -0.0332288  
C182     C      0.456510000000     0.044750000000     0.118870000000     0.0465774  
C183     C      0.499130000000     0.999100000000     0.315260000000     0.0491696  
C184     C      0.496540000000     0.001040000000     0.181190000000     0.0522285  
C185     C      0.828870000000     0.476970000000     0.521780000000    -0.0933542  
C186     C      0.630410000000     0.479890000000     0.478070000000     0.0714904  
C187     C      0.630080000000     0.516970000000     0.518450000000     0.071464   
C188     C      0.662700000000     0.479530000000     0.478090000000    -0.0900689  
C189     C      0.730390000000     0.497330000000     0.471580000000    -0.0344715  
C190     C      0.762700000000     0.496810000000     0.472060000000    -0.0339738  
C191     C      0.713450000000     0.497930000000     0.499320000000    -0.00506975 
C192     C      0.662370000000     0.517090000000     0.519150000000    -0.0899522  
C193     C      0.778800000000     0.496760000000     0.500290000000    -0.00579945 
C194     C      0.830450000000     0.513890000000     0.480400000000    -0.0908145  
C195     C      0.761860000000     0.497430000000     0.528030000000    -0.0339277  
C196     C      0.862670000000     0.512900000000     0.481260000000     0.0706133  
C197     C      0.861300000000     0.476240000000     0.522210000000     0.0867766  
C198     C      0.729560000000     0.498060000000     0.527550000000    -0.0342531  
C199     C      0.875240000000     0.455840000000     0.544820000000     0.0463714  
C200     C      0.679100000000     0.498230000000     0.498820000000     0.0496549  
C201     C      0.813150000000     0.495880000000     0.500820000000     0.0518625  
C202     C      0.163920000000     0.520400000000     0.516190000000    -0.0928889  
C203     C      0.362540000000     0.478020000000     0.514520000000     0.071978   
C204     C      0.362600000000     0.517770000000     0.476770000000     0.0717969  
C205     C      0.330260000000     0.477650000000     0.514690000000    -0.0892053  
C206     C      0.262640000000     0.470180000000     0.497100000000    -0.0340654  
C207     C      0.230330000000     0.470410000000     0.497660000000    -0.0335351  
C208     C      0.279360000000     0.498030000000     0.495710000000    -0.00468027 
C209     C      0.330310000000     0.518030000000     0.476400000000    -0.0898147  
C210     C      0.213990000000     0.498500000000     0.496920000000    -0.00533701 
C211     C      0.162350000000     0.477590000000     0.480930000000    -0.0900897  
C212     C      0.230710000000     0.526340000000     0.495360000000    -0.0335898  
C213     C      0.130130000000     0.478250000000     0.482190000000     0.0712601  
C214     C      0.131510000000     0.520670000000     0.517130000000     0.0874897  
C215     C      0.263000000000     0.526110000000     0.494750000000    -0.0339043  
C216     C      0.117570000000     0.544470000000     0.536130000000     0.0486636  
C217     C      0.313720000000     0.497850000000     0.495530000000     0.0499517  
C218     C      0.179650000000     0.498800000000     0.498020000000     0.0522469  
C219     C      0.662590000000     0.523380000000     0.976510000000    -0.092921   
C220     C      0.860710000000     0.480580000000     0.018980000000     0.0718013  
C221     C      0.862140000000     0.520180000000     0.981110000000     0.0715747  
C222     C      0.828420000000     0.480940000000     0.018730000000    -0.0889435  
C223     C      0.761260000000     0.474150000000     0.999440000000    -0.0344539  
C224     C      0.728960000000     0.474610000000     0.998680000000    -0.0335777  
C225     C      0.778220000000     0.501870000000     0.998470000000    -0.00457208 
C226     C      0.829870000000     0.521170000000     0.980320000000    -0.0896039  
C227     C      0.712850000000     0.502790000000     0.996940000000    -0.00543356 
C228     C      0.661310000000     0.483510000000     0.015060000000    -0.089763   
C229     C      0.729800000000     0.530510000000     0.995960000000    -0.0337752  
C230     C      0.629100000000     0.484140000000     0.014090000000     0.0711002  
C231     C      0.630150000000     0.523630000000     0.975880000000     0.0867832  
C232     C      0.762110000000     0.530060000000     0.996720000000    -0.0342537  
C233     C      0.616010000000     0.545210000000     0.954510000000     0.0462464  
C234     C      0.812580000000     0.501350000000     0.999220000000     0.0495292  
C235     C      0.678480000000     0.503240000000     0.996170000000     0.0517317  
C236     C      0.162350000000     0.473030000000     0.980220000000    -0.0929011  
C237     C      0.361130000000     0.516550000000     0.018450000000     0.0719694  
C238     C      0.361600000000     0.478660000000     0.978840000000     0.0717708  
C239     C      0.328840000000     0.516100000000     0.019070000000    -0.0888136  
C240     C      0.261710000000     0.496990000000     0.027370000000    -0.033978   
C241     C      0.229400000000     0.496160000000     0.027550000000    -0.0335312  
C242     C      0.278130000000     0.495770000000     0.999330000000    -0.00472735 
C243     C      0.329330000000     0.477650000000     0.978850000000    -0.0896085  
C244     C      0.212760000000     0.494060000000     0.999700000000    -0.00542411 
C245     C      0.161390000000     0.512210000000     0.019470000000    -0.0896338  
C246     C      0.229180000000     0.492920000000     0.971670000000    -0.0337527  
C247     C      0.129160000000     0.511300000000     0.019040000000     0.0711022  
C248     C      0.129920000000     0.472420000000     0.980190000000     0.0870126  
C249     C      0.261470000000     0.493770000000     0.971490000000    -0.0339627  
C250     C      0.115650000000     0.450550000000     0.959220000000     0.0465492  
C251     C      0.312510000000     0.496510000000     0.999100000000     0.0496681  
C252     C      0.178400000000     0.493070000000     0.999840000000     0.0518391  
C253     C      0.013810000000     0.519200000000     0.668070000000    -0.0923207  
C254     C      0.012590000000     0.476040000000     0.866700000000     0.0721945  
C255     C      0.975740000000     0.516620000000     0.867030000000     0.071784   
C256     C      0.012640000000     0.475780000000     0.834410000000    -0.0887127  
C257     C      0.994700000000     0.468900000000     0.766820000000    -0.0341009  
C258     C      0.995050000000     0.469210000000     0.734500000000    -0.0335496  
C259     C      0.993880000000     0.496720000000     0.783630000000    -0.00454259 
C260     C      0.975250000000     0.517000000000     0.834740000000    -0.0895953  
C261     C      0.994660000000     0.497360000000     0.718230000000    -0.00519129 
C262     C      0.978090000000     0.476790000000     0.666610000000    -0.0897147  
C263     C      0.993670000000     0.525170000000     0.735050000000    -0.0336628  
C264     C      0.979100000000     0.477560000000     0.634380000000     0.0710489  
C265     C      0.014500000000     0.519600000000     0.635660000000     0.0875863  
C266     C      0.993280000000     0.524850000000     0.767350000000    -0.0338865  
C267     C      0.033830000000     0.543110000000     0.621690000000     0.0488556  
C268     C      0.993860000000     0.496450000000     0.818000000000     0.0495525  
C269     C      0.995520000000     0.497750000000     0.683870000000     0.0517584  
C270     C      0.013840000000     0.473630000000     0.333170000000    -0.0930246  
C271     C      0.014050000000     0.515040000000     0.134670000000     0.0721918  
C272     C      0.974830000000     0.476730000000     0.134340000000     0.0719226  
C273     C      0.013990000000     0.515420000000     0.166970000000    -0.0886624  
C274     C      0.995200000000     0.523470000000     0.234450000000    -0.0344151  
C275     C      0.995300000000     0.523180000000     0.266770000000    -0.0336708  
C276     C      0.993940000000     0.495650000000     0.217680000000    -0.00454687 
C277     C      0.974310000000     0.476390000000     0.166630000000    -0.0890447  
C278     C      0.994380000000     0.495050000000     0.283020000000    -0.00572896 
C279     C      0.977120000000     0.515200000000     0.334540000000    -0.0907225  
C280     C      0.993060000000     0.467240000000     0.266260000000    -0.0337747  
C281     C      0.977990000000     0.514380000000     0.366780000000     0.0705965  
C282     C      0.014510000000     0.473300000000     0.365580000000     0.0871657  
C283     C      0.992750000000     0.467540000000     0.233950000000    -0.034254   
C284     C      0.034380000000     0.450270000000     0.379620000000     0.0465519  
C285     C      0.994020000000     0.495880000000     0.183340000000     0.0494646  
C286     C      0.995110000000     0.494660000000     0.317360000000     0.0516871  
C287     C      0.015670000000     0.828340000000     0.472500000000    -0.0927366  
C288     C      0.973770000000     0.629700000000     0.479680000000     0.0718871  
C289     C      0.014330000000     0.630570000000     0.516550000000     0.0724592  
C290     C      0.973350000000     0.662010000000     0.478790000000    -0.0895911  
C291     C      0.966780000000     0.730210000000     0.496350000000    -0.0341713  
C292     C      0.967300000000     0.762540000000     0.495610000000    -0.0336963  
C293     C      0.994510000000     0.713260000000     0.495910000000    -0.00487787 
C294     C      0.014690000000     0.662840000000     0.516030000000    -0.0881824  
C295     C      0.995540000000     0.778550000000     0.494110000000    -0.00570498 
C296     C      0.977580000000     0.830350000000     0.512780000000    -0.0899577  
C297     C      0.023250000000     0.761580000000     0.493530000000    -0.0332934  
C298     C      0.978970000000     0.862570000000     0.511940000000     0.0709573  
C299     C      0.016510000000     0.860750000000     0.471830000000     0.0875531  
C300     C      0.022740000000     0.729300000000     0.494530000000    -0.0335823  
C301     C      0.036890000000     0.874420000000     0.449040000000     0.048608   
C302     C      0.994100000000     0.678950000000     0.496970000000     0.0496959  
C303     C      0.996210000000     0.812860000000     0.493110000000     0.0519004  
C304     C      0.021480000000     0.163260000000     0.516940000000    -0.0935318  
C305     C      0.978360000000     0.362090000000     0.520030000000     0.0716632  
C306     C      0.017920000000     0.362810000000     0.482080000000     0.0722016  
C307     C      0.978210000000     0.329780000000     0.519820000000    -0.0887518  
C308     C      0.971010000000     0.262330000000     0.500610000000    -0.0344675  
C309     C      0.971420000000     0.230000000000     0.500090000000    -0.0333641  
C310     C      0.998780000000     0.279230000000     0.499950000000    -0.00467394 
C311     C      0.018440000000     0.330540000000     0.481390000000    -0.0885462  
C312     C      0.999610000000     0.213850000000     0.499060000000    -0.00661373 
C313     C      0.979500000000     0.162660000000     0.480680000000    -0.091255   
C314     C      0.027370000000     0.230760000000     0.498390000000    -0.0330999  
C315     C      0.980500000000     0.130410000000     0.480650000000     0.0706395  
C316     C      0.022040000000     0.130840000000     0.516650000000     0.087073   
C317     C      0.026960000000     0.263060000000     0.498790000000    -0.0339799  
C318     C      0.045200000000     0.116420000000     0.536090000000     0.0466902  
C319     C      0.998430000000     0.313590000000     0.500380000000     0.0493036  
C320     C      0.000150000000     0.179490000000     0.498890000000     0.0528989  
C321     C      0.832230000000     0.978460000000     0.516600000000    -0.0931012  
C322     C      0.633280000000     0.019800000000     0.478090000000     0.0719659  
C323     C      0.633750000000     0.980940000000     0.516740000000     0.0718469  
C324     C      0.665580000000     0.020040000000     0.477360000000    -0.0902502  
C325     C      0.733630000000     0.027500000000     0.494010000000    -0.0333935  
C326     C      0.765970000000     0.027060000000     0.493970000000    -0.0335529  
C327     C      0.716730000000     0.999790000000     0.496010000000    -0.00637446 
C328     C      0.666030000000     0.980550000000     0.516550000000    -0.0902526  
C329     C      0.782120000000     0.998910000000     0.495930000000    -0.00595499 
C330     C      0.833800000000     0.017670000000     0.477390000000    -0.0899732  
C331     C      0.765190000000     0.971210000000     0.497580000000    -0.0339695  
C332     C      0.866040000000     0.016630000000     0.478210000000     0.0708931  
C333     C      0.864630000000     0.977800000000     0.517090000000     0.0867772  
C334     C      0.732900000000     0.971640000000     0.497640000000    -0.033709   
C335     C      0.878530000000     0.956550000000     0.538950000000     0.046569   
C336     C      0.682370000000     0.000180000000     0.496650000000     0.0514558  
C337     C      0.816480000000     0.998370000000     0.496610000000     0.0512282  
C338     C      0.167170000000     0.977310000000     0.472300000000    -0.0924985  
C339     C      0.365620000000     0.015070000000     0.516970000000     0.072305   
C340     C      0.366370000000     0.977420000000     0.477130000000     0.0716896  
C341     C      0.333330000000     0.015140000000     0.516880000000    -0.0885002  
C342     C      0.265780000000     0.996360000000     0.523380000000    -0.0341653  
C343     C      0.233470000000     0.996230000000     0.522760000000    -0.0336344  
C344     C      0.282840000000     0.996030000000     0.495710000000    -0.00458469 
C345     C      0.334090000000     0.977030000000     0.476330000000    -0.0896414  
C346     C      0.217470000000     0.995860000000     0.494460000000    -0.00505009 
C347     C      0.165900000000     0.013360000000     0.514440000000    -0.0888428  
C348     C      0.234570000000     0.995700000000     0.466790000000    -0.0336778  
C349     C      0.133670000000     0.012740000000     0.513490000000     0.07149    
C350     C      0.134750000000     0.977120000000     0.471640000000     0.0873701  
C351     C      0.266870000000     0.995710000000     0.467420000000    -0.034079   
C352     C      0.120680000000     0.958170000000     0.447890000000     0.0487169  
C353     C      0.317170000000     0.996040000000     0.496340000000     0.0492738  
C354     C      0.183080000000     0.995500000000     0.493760000000     0.0513772  
C355     C      0.020740000000     0.663010000000     0.019720000000    -0.0930094  
C356     C      0.981230000000     0.861750000000     0.977440000000     0.0720914  
C357     C      0.021120000000     0.862630000000     0.015020000000     0.0723116  
C358     C      0.981100000000     0.829470000000     0.977700000000    -0.0884997  
C359     C      0.973310000000     0.762480000000     0.996920000000    -0.034644   
C360     C      0.973200000000     0.730180000000     0.997570000000    -0.0336341  
C361     C      0.001320000000     0.778960000000     0.997870000000    -0.00378001 
C362     C      0.021620000000     0.830340000000     0.015840000000    -0.0885888  
C363     C      0.001100000000     0.713580000000     0.999220000000    -0.00557208 
C364     C      0.980960000000     0.662370000000     0.981060000000    -0.0909954  
C365     C      0.029120000000     0.730050000000     0.000190000000    -0.0331435  
C366     C      0.981000000000     0.630150000000     0.982100000000     0.0704266  
C367     C      0.020390000000     0.630580000000     0.020440000000     0.0868393  
C368     C      0.029230000000     0.762360000000     0.999520000000    -0.0344175  
C369     C      0.041770000000     0.616120000000     0.041790000000     0.0464892  
C370     C      0.001390000000     0.813330000000     0.997110000000     0.0498692  
C371     C      0.000950000000     0.679220000000     0.999980000000     0.0522253  
C372     C      0.972560000000     0.328370000000     0.019060000000    -0.0927493  
C373     C      0.013130000000     0.130240000000     0.974830000000     0.0721936  
C374     C      0.975490000000     0.129220000000     0.014660000000     0.0718293  
C375     C      0.012840000000     0.162530000000     0.974810000000    -0.0886606  
C376     C      0.020670000000     0.229860000000     0.993440000000    -0.0337926  
C377     C      0.020300000000     0.262160000000     0.994260000000    -0.0333946  
C378     C      0.993010000000     0.212940000000     0.995700000000    -0.00496475 
C379     C      0.974580000000     0.161490000000     0.015200000000    -0.0895267  
C380     C      0.992250000000     0.278310000000     0.997330000000    -0.00554527 
C381     C      0.010910000000     0.330040000000     0.979010000000    -0.0893749  
C382     C      0.964570000000     0.261380000000     0.999440000000    -0.0340451  
C383     C      0.010400000000     0.362240000000     0.980400000000     0.0710146  
C384     C      0.972410000000     0.360790000000     0.020100000000     0.0868063  
C385     C      0.964950000000     0.229080000000     0.998660000000    -0.0341     
C386     C      0.951720000000     0.374690000000     0.042470000000     0.0462754  
C387     C      0.993440000000     0.178580000000     0.995190000000     0.0493739  
C388     C      0.991880000000     0.312670000000     0.998450000000     0.0513273  
C389     C      0.830370000000     0.971610000000     0.982490000000    -0.093024   
C390     C      0.632710000000     0.017430000000     0.981530000000     0.0725556  
C391     C      0.631370000000     0.978910000000     0.020510000000     0.0716762  
C392     C      0.664990000000     0.017130000000     0.981740000000    -0.0879441  
C393     C      0.732480000000     0.023870000000     0.000010000000    -0.0331714  
C394     C      0.764780000000     0.023050000000     0.999690000000    -0.0334342  
C395     C      0.715240000000     0.996370000000     0.001960000000    -0.00519396 
C396     C      0.663650000000     0.977970000000     0.021260000000    -0.0894996  
C397     C      0.780600000000     0.994690000000     0.001220000000    -0.00579197 
C398     C      0.832540000000     0.015080000000     0.016890000000    -0.0901654  
C399     C      0.763370000000     0.967210000000     0.003370000000    -0.0337486  
C400     C      0.864740000000     0.014060000000     0.015530000000     0.0714293  
C401     C      0.862780000000     0.971000000000     0.981420000000     0.0873467  
C402     C      0.731070000000     0.968040000000     0.003780000000    -0.0339029  
C403     C      0.876430000000     0.946450000000     0.963190000000     0.0486865  
C404     C      0.680890000000     0.997210000000     0.001720000000     0.0494137  
C405     C      0.814940000000     0.993780000000     0.000220000000     0.0517077  
C406     C      0.165080000000     0.021260000000     0.974670000000    -0.0930735  
C407     C      0.364630000000     0.981840000000     0.976610000000     0.0713631  
C408     C      0.364170000000     0.021790000000     0.014140000000     0.0720433  
C409     C      0.332340000000     0.981370000000     0.976110000000    -0.0903903  
C410     C      0.264820000000     0.973300000000     0.994220000000    -0.0346419  
C411     C      0.232500000000     0.973100000000     0.993970000000    -0.0342953  
C412     C      0.281180000000     0.001390000000     0.994770000000    -0.00423692 
C413     C      0.331870000000     0.022020000000     0.014100000000    -0.0891333  
C414     C      0.215800000000     0.000990000000     0.994100000000    -0.00490062 
C415     C      0.164750000000     0.980150000000     0.011910000000    -0.0903466  
C416     C      0.232160000000     0.029080000000     0.994640000000    -0.0336765  
C417     C      0.132510000000     0.980320000000     0.011230000000     0.0707258  
C418     C      0.132650000000     0.020960000000     0.974220000000     0.0870577  
C419     C      0.264480000000     0.029280000000     0.995050000000    -0.0340815  
C420     C      0.118020000000     0.043240000000     0.953930000000     0.0466492  
C421     C      0.315540000000     0.001600000000     0.995000000000     0.0502622  
C422     C      0.181440000000     0.000790000000     0.993560000000     0.0523996  
C423     C      0.978450000000     0.974200000000     0.827630000000    -0.0925526  
C424     C      0.020760000000     0.013380000000     0.628900000000     0.0725723  
C425     C      0.982160000000     0.974460000000     0.628710000000     0.0719011  
C426     C      0.020930000000     0.013650000000     0.661200000000    -0.0883901  
C427     C      0.002210000000     0.021960000000     0.728510000000    -0.0336919  
C428     C      0.001450000000     0.022060000000     0.760820000000    -0.032306   
C429     C      0.000950000000     0.993970000000     0.712020000000    -0.00437714 
C430     C      0.981810000000     0.974080000000     0.661000000000    -0.0889924  
C431     C      0.999450000000     0.994160000000     0.777400000000    -0.00610195 
C432     C      0.016800000000     0.014260000000     0.828980000000    -0.0887443  
C433     C      0.998430000000     0.966160000000     0.760890000000    -0.0331975  
C434     C      0.015500000000     0.013880000000     0.861200000000     0.071654   
C435     C      0.977510000000     0.974170000000     0.860050000000     0.0871399  
C436     C      0.999140000000     0.966070000000     0.728600000000    -0.0343954  
C437     C      0.956210000000     0.952470000000     0.874080000000     0.0484964  
C438     C      0.001280000000     0.993870000000     0.677660000000     0.049695   
C439     C      0.998240000000     0.994230000000     0.811770000000     0.0513043  
C440     C      0.019480000000     0.978050000000     0.162750000000    -0.092504   
C441     C      0.978280000000     0.018090000000     0.361580000000     0.0720253  
C442     C      0.016930000000     0.979230000000     0.361040000000     0.0723493  
C443     C      0.977620000000     0.018420000000     0.329260000000    -0.0886212  
C444     C      0.994440000000     0.026110000000     0.261230000000    -0.0337161  
C445     C      0.994910000000     0.025800000000     0.228890000000    -0.0333531  
C446     C      0.996600000000     0.998370000000     0.278060000000    -0.00497667 
C447     C      0.016850000000     0.978970000000     0.328780000000    -0.0878965  
C448     C      0.997580000000     0.997750000000     0.212670000000    -0.00578152 
C449     C      0.979190000000     0.016140000000     0.160860000000    -0.0897385  
C450     C      0.999360000000     0.970010000000     0.229500000000    -0.0341274  
C451     C      0.980360000000     0.015190000000     0.128640000000     0.0706931  
C452     C      0.020350000000     0.977510000000     0.130340000000     0.0867107  
C453     C      0.998850000000     0.970310000000     0.261780000000    -0.0338863  
C454     C      0.042790000000     0.956780000000     0.116590000000     0.0468075  
C455     C      0.996980000000     0.998630000000     0.312440000000     0.0488503  
C456     C      0.998750000000     0.997350000000     0.178320000000     0.0508418  
H1       H      0.460290000000     0.465610000000     0.875040000000     0.0312161  
H2       H      0.529080000000     0.532370000000     0.618710000000     0.0319442  
H3       H      0.493480000000     0.450330000000     0.776300000000     0.0405758  
H4       H      0.497270000000     0.549040000000     0.717990000000     0.0401519  
H5       H      0.529960000000     0.533560000000     0.674320000000     0.0550069  
H6       H      0.497100000000     0.550150000000     0.774390000000     0.0404112  
H7       H      0.459940000000     0.463120000000     0.677130000000     0.0592635  
H8       H      0.460230000000     0.464970000000     0.819080000000     0.0549797  
H9       H      0.529100000000     0.537130000000     0.818810000000     0.0557378  
H10      H      0.493600000000     0.449240000000     0.719970000000     0.0409812  
H11      H      0.528230000000     0.537640000000     0.874830000000     0.0344387  
H12      H      0.532380000000     0.465260000000     0.374610000000     0.0308361  
H13      H      0.461700000000     0.532900000000     0.119040000000     0.0349497  
H14      H      0.500350000000     0.450120000000     0.275390000000     0.0401767  
H15      H      0.492640000000     0.549560000000     0.218730000000     0.0404756  
H16      H      0.460710000000     0.533320000000     0.174660000000     0.0559776  
H17      H      0.492520000000     0.549720000000     0.275140000000     0.0399625  
H18      H      0.533930000000     0.466210000000     0.176690000000     0.0590573  
H19      H      0.532700000000     0.465420000000     0.318630000000     0.0546601  
H20      H      0.460820000000     0.534590000000     0.319060000000     0.0546032  
H21      H      0.500560000000     0.449990000000     0.219040000000     0.0408243  
H22      H      0.461460000000     0.534350000000     0.375070000000     0.0309042  
H23      H      0.531710000000     0.619860000000     0.533170000000     0.0308927  
H24      H      0.466430000000     0.876570000000     0.464330000000     0.0319036  
H25      H      0.500940000000     0.719750000000     0.548120000000     0.0401608  
H26      H      0.496110000000     0.776450000000     0.448520000000     0.0398239  
H27      H      0.464680000000     0.820980000000     0.463930000000     0.0548651  
H28      H      0.494980000000     0.720070000000     0.448390000000     0.0397977  
H29      H      0.536280000000     0.818020000000     0.532760000000     0.0589473  
H30      H      0.532770000000     0.675840000000     0.533380000000     0.0546996  
H31      H      0.462110000000     0.676800000000     0.462970000000     0.0544918  
H32      H      0.502120000000     0.776090000000     0.548230000000     0.0407384  
H33      H      0.461990000000     0.620800000000     0.462870000000     0.0309027  
H34      H      0.461890000000     0.376050000000     0.530210000000     0.034473   
H35      H      0.531870000000     0.120230000000     0.463150000000     0.0318258  
H36      H      0.447370000000     0.276910000000     0.497340000000     0.0406202  
H37      H      0.547110000000     0.220440000000     0.492610000000     0.039962   
H38      H      0.532010000000     0.175820000000     0.461160000000     0.0547714  
H39      H      0.547130000000     0.276850000000     0.491960000000     0.0400918  
H40      H      0.462650000000     0.178740000000     0.532240000000     0.0593542  
H41      H      0.461980000000     0.320100000000     0.530240000000     0.0559803  
H42      H      0.532530000000     0.320790000000     0.459720000000     0.0544708  
H43      H      0.447360000000     0.220570000000     0.498010000000     0.040979   
H44      H      0.532300000000     0.376820000000     0.460600000000     0.0308171  
H45      H      0.461690000000     0.879240000000     0.962930000000     0.0309157  
H46      H      0.529010000000     0.623000000000     0.966050000000     0.0354402  
H47      H      0.444820000000     0.780180000000     0.996510000000     0.0402752  
H48      H      0.543550000000     0.721880000000     0.000610000000     0.0407415  
H49      H      0.529960000000     0.678620000000     0.965530000000     0.0562166  
H50      H      0.544620000000     0.778330000000     0.000120000000     0.040342   
H51      H      0.455770000000     0.680760000000     0.031550000000     0.0592359  
H52      H      0.460640000000     0.823230000000     0.962610000000     0.0548631  
H53      H      0.530370000000     0.822140000000     0.033890000000     0.0548228  
H54      H      0.443780000000     0.723750000000     0.996230000000     0.0408289  
H55      H      0.531120000000     0.878180000000     0.033510000000     0.0308123  
H56      H      0.461950000000     0.378130000000     0.961980000000     0.0310925  
H57      H      0.461430000000     0.122710000000     0.027190000000     0.0352187  
H58      H      0.448450000000     0.278480000000     0.994540000000     0.0403325  
H59      H      0.548950000000     0.223710000000     0.002060000000     0.0410367  
H60      H      0.460450000000     0.178340000000     0.028050000000     0.0562889  
H61      H      0.548130000000     0.280010000000     0.001130000000     0.0409168  
H62      H      0.539450000000     0.180820000000     0.967800000000     0.0598812  
H63      H      0.462420000000     0.322120000000     0.962170000000     0.0549893  
H64      H      0.533040000000     0.323640000000     0.032620000000     0.0558143  
H65      H      0.449370000000     0.222090000000     0.994170000000     0.0404454  
H66      H      0.532500000000     0.379590000000     0.031440000000     0.034402   
H67      H      0.464630000000     0.033760000000     0.619770000000     0.0347379  
H68      H      0.466300000000     0.965380000000     0.876170000000     0.0321408  
H69      H      0.498660000000     0.048530000000     0.718940000000     0.0413888  
H70      H      0.499440000000     0.949250000000     0.776450000000     0.0404116  
H71      H      0.465180000000     0.964240000000     0.820510000000     0.0552836  
H72      H      0.498720000000     0.948650000000     0.719940000000     0.0407527  
H73      H      0.534860000000     0.034940000000     0.817430000000     0.0602269  
H74      H      0.463910000000     0.033950000000     0.675800000000     0.0561891  
H75      H      0.533530000000     0.962570000000     0.676330000000     0.056169   
H76      H      0.498750000000     0.049110000000     0.775370000000     0.04164    
H77      H      0.533630000000     0.962740000000     0.620260000000     0.0344704  
H78      H      0.532900000000     0.035290000000     0.375980000000     0.0308764  
H79      H      0.528880000000     0.965430000000     0.119740000000     0.0320255  
H80      H      0.498400000000     0.049580000000     0.277130000000     0.0401518  
H81      H      0.497040000000     0.950520000000     0.219300000000     0.040096   
H82      H      0.530110000000     0.964500000000     0.175310000000     0.0550229  
H83      H      0.498640000000     0.949700000000     0.275690000000     0.0396996  
H84      H      0.462820000000     0.037530000000     0.178270000000     0.0593853  
H85      H      0.532770000000     0.035920000000     0.319950000000     0.0546506  
H86      H      0.465630000000     0.962170000000     0.319940000000     0.0547136  
H87      H      0.497790000000     0.050390000000     0.220740000000     0.0410139  
H88      H      0.466570000000     0.961790000000     0.375950000000     0.0309338  
H89      H      0.618100000000     0.532000000000     0.534540000000     0.030932   
H90      H      0.874770000000     0.527530000000     0.464880000000     0.0320493  
H91      H      0.717200000000     0.498220000000     0.549330000000     0.0403537  
H92      H      0.775070000000     0.496040000000     0.450290000000     0.0399333  
H93      H      0.819190000000     0.529110000000     0.464000000000     0.0550612  
H94      H      0.718680000000     0.497530000000     0.449440000000     0.0399127  
H95      H      0.815880000000     0.462440000000     0.537580000000     0.0592517  
H96      H      0.674140000000     0.532190000000     0.535300000000     0.054807   
H97      H      0.674700000000     0.464310000000     0.462240000000     0.0547551  
H98      H      0.773590000000     0.497730000000     0.550160000000     0.0408571  
H99      H      0.618710000000     0.464930000000     0.461710000000     0.0309018  
H100     H      0.374470000000     0.533760000000     0.461540000000     0.0310359  
H101     H      0.118020000000     0.461180000000     0.468380000000     0.035004   
H102     H      0.275170000000     0.547980000000     0.493970000000     0.0406285  
H103     H      0.218150000000     0.448580000000     0.499120000000     0.0406919  
H104     H      0.173600000000     0.460700000000     0.466260000000     0.0563061  
H105     H      0.274530000000     0.448150000000     0.497540000000     0.0405979  
H106     H      0.176890000000     0.536930000000     0.529910000000     0.0600717  
H107     H      0.318460000000     0.533760000000     0.460930000000     0.0549646  
H108     H      0.318370000000     0.461940000000     0.530150000000     0.0561843  
H109     H      0.218810000000     0.548360000000     0.494400000000     0.0411823  
H110     H      0.374360000000     0.462090000000     0.529860000000     0.0345229  
H111     H      0.874560000000     0.535830000000     0.965960000000     0.031078   
H112     H      0.617140000000     0.468320000000     0.029440000000     0.035673   
H113     H      0.774460000000     0.551840000000     0.996400000000     0.0402952  
H114     H      0.716610000000     0.452820000000     0.998980000000     0.0405088  
H115     H      0.672670000000     0.467800000000     0.030930000000     0.0562081  
H116     H      0.772960000000     0.452030000000     0.000290000000     0.0409311  
H117     H      0.675450000000     0.538630000000     0.961280000000     0.0589688  
H118     H      0.818580000000     0.537070000000     0.964610000000     0.0548471  
H119     H      0.815980000000     0.465500000000     0.034040000000     0.0557039  
H120     H      0.718090000000     0.552630000000     0.995100000000     0.0407836  
H121     H      0.871960000000     0.464410000000     0.034480000000     0.0342606  
H122     H      0.373630000000     0.463580000000     0.962830000000     0.0311912  
H123     H      0.117300000000     0.526920000000     0.034660000000     0.0357274  
H124     H      0.273380000000     0.493310000000     0.949460000000     0.0405783  
H125     H      0.217450000000     0.496650000000     0.049560000000     0.0406796  
H126     H      0.172880000000     0.528310000000     0.034840000000     0.0563994  
H127     H      0.273840000000     0.498080000000     0.049250000000     0.040622   
H128     H      0.175110000000     0.457530000000     0.965150000000     0.0591646  
H129     H      0.317680000000     0.461840000000     0.963310000000     0.054926   
H130     H      0.316770000000     0.531370000000     0.034830000000     0.0559435  
H131     H      0.217050000000     0.491820000000     0.949790000000     0.041214   
H132     H      0.372780000000     0.532160000000     0.034230000000     0.0347516  
H133     H      0.960910000000     0.532900000000     0.879010000000     0.0311922  
H134     H      0.964990000000     0.460710000000     0.622300000000     0.0356008  
H135     H      0.992950000000     0.546710000000     0.779570000000     0.0406766  
H136     H      0.996070000000     0.447390000000     0.722250000000     0.040731   
H137     H      0.963320000000     0.460010000000     0.677900000000     0.0563836  
H138     H      0.994840000000     0.446830000000     0.778640000000     0.0406404  
H139     H      0.027850000000     0.535500000000     0.681000000000     0.0600708  
H140     H      0.960080000000     0.533100000000     0.823010000000     0.0550419  
H141     H      0.027700000000     0.459770000000     0.822420000000     0.0561789  
H142     H      0.992990000000     0.547240000000     0.723230000000     0.0412407  
H143     H      0.027600000000     0.459730000000     0.878410000000     0.0344251  
H144     H      0.959110000000     0.461300000000     0.122370000000     0.0346708  
H145     H      0.963470000000     0.530890000000     0.378820000000     0.0319427  
H146     H      0.992040000000     0.445710000000     0.221700000000     0.0410947  
H147     H      0.996570000000     0.544980000000     0.279050000000     0.04042    
H148     H      0.962060000000     0.531660000000     0.323150000000     0.0552578  
H149     H      0.995840000000     0.545510000000     0.222560000000     0.0407866  
H150     H      0.028230000000     0.457640000000     0.320240000000     0.0595713  
H151     H      0.958280000000     0.461170000000     0.178390000000     0.0560252  
H152     H      0.029850000000     0.530600000000     0.179010000000     0.0562048  
H153     H      0.992030000000     0.445210000000     0.278120000000     0.0410187  
H154     H      0.029990000000     0.530440000000     0.122960000000     0.0345216  
H155     H      0.030690000000     0.619100000000     0.531690000000     0.0383077  
H156     H      0.964160000000     0.874850000000     0.528020000000     0.0354386  
H157     H      0.044480000000     0.716870000000     0.493880000000     0.0416564  
H158     H      0.945570000000     0.775000000000     0.495850000000     0.0407963  
H159     H      0.962320000000     0.819220000000     0.529240000000     0.056535   
H160     H      0.944690000000     0.718490000000     0.497660000000     0.0406121  
H161     H      0.029930000000     0.815150000000     0.456610000000     0.0601233  
H162     H      0.030860000000     0.675080000000     0.530740000000     0.0574503  
H163     H      0.957220000000     0.673600000000     0.463530000000     0.0550727  
H164     H      0.045370000000     0.773280000000     0.492650000000     0.0419262  
H165     H      0.957470000000     0.617490000000     0.465060000000     0.0309208  
H166     H      0.033750000000     0.374930000000     0.466870000000     0.0350045  
H167     H      0.963920000000     0.118680000000     0.465950000000     0.0318962  
H168     H      0.048770000000     0.275370000000     0.498550000000     0.040878   
H169     H      0.949650000000     0.217640000000     0.500880000000     0.0400938  
H170     H      0.962810000000     0.174340000000     0.466100000000     0.05526    
H171     H      0.948910000000     0.274100000000     0.501200000000     0.0407104  
H172     H      0.037510000000     0.175860000000     0.531570000000     0.059589   
H173     H      0.034190000000     0.318970000000     0.465720000000     0.0560713  
H174     H      0.962600000000     0.317580000000     0.535150000000     0.0558224  
H175     H      0.049460000000     0.219020000000     0.497280000000     0.0410238  
H176     H      0.962390000000     0.373650000000     0.535510000000     0.0342381  
H177     H      0.622120000000     0.965330000000     0.532550000000     0.0346766  
H178     H      0.878160000000     0.032020000000     0.462570000000     0.0318464  
H179     H      0.720590000000     0.949860000000     0.498630000000     0.0407153  
H180     H      0.778310000000     0.048830000000     0.493050000000     0.0399792  
H181     H      0.822540000000     0.033260000000     0.461350000000     0.0547409  
H182     H      0.721880000000     0.049590000000     0.493110000000     0.0398472  
H183     H      0.819260000000     0.963670000000     0.532190000000     0.0592675  
H184     H      0.678070000000     0.965150000000     0.532200000000     0.0563615  
H185     H      0.677280000000     0.035380000000     0.461380000000     0.054672   
H186     H      0.776910000000     0.949100000000     0.498540000000     0.041003   
H187     H      0.621230000000     0.035420000000     0.462620000000     0.0307804  
H188     H      0.378520000000     0.962280000000     0.461260000000     0.0310558  
H189     H      0.121680000000     0.027090000000     0.530190000000     0.0357956  
H190     H      0.279350000000     0.995940000000     0.445710000000     0.040735   
H191     H      0.221040000000     0.995900000000     0.544500000000     0.0405809  
H192     H      0.177250000000     0.028150000000     0.531170000000     0.0563456  
H193     H      0.277430000000     0.996200000000     0.545560000000     0.0406689  
H194     H      0.179990000000     0.962990000000     0.456170000000     0.0596477  
H195     H      0.322490000000     0.961640000000     0.460330000000     0.0550828  
H196     H      0.321130000000     0.030440000000     0.532520000000     0.0560969  
H197     H      0.223000000000     0.995980000000     0.444580000000     0.0411559  
H198     H      0.377160000000     0.030360000000     0.533150000000     0.0345073  
H199     H      0.037050000000     0.874840000000     0.030050000000     0.0343929  
H200     H      0.964990000000     0.618430000000     0.966770000000     0.0321477  
H201     H      0.051220000000     0.774330000000     0.999820000000     0.0409074  
H202     H      0.951200000000     0.718210000000     0.997280000000     0.0403199  
H203     H      0.965510000000     0.673990000000     0.965140000000     0.0553077  
H204     H      0.951380000000     0.774550000000     0.996140000000     0.0411954  
H205     H      0.036200000000     0.675630000000     0.034940000000     0.0592762  
H206     H      0.037450000000     0.818820000000     0.031450000000     0.0559993  
H207     H      0.965380000000     0.817270000000     0.962500000000     0.0568463  
H208     H      0.051030000000     0.717950000000     0.000990000000     0.0410307  
H209     H      0.965120000000     0.873220000000     0.962030000000     0.0380151  
H210     H      0.960600000000     0.116970000000     0.030690000000     0.0309723  
H211     H      0.025660000000     0.374360000000     0.964620000000     0.03565    
H212     H      0.943190000000     0.216750000000     0.999970000000     0.0402494  
H213     H      0.042080000000     0.274470000000     0.993040000000     0.0409456  
H214     H      0.025970000000     0.318840000000     0.962420000000     0.0562131  
H215     H      0.042720000000     0.218120000000     0.991610000000     0.0409928  
H216     H      0.957910000000     0.315360000000     0.034730000000     0.0589422  
H217     H      0.959500000000     0.172940000000     0.031590000000     0.0547923  
H218     H      0.027530000000     0.174820000000     0.958670000000     0.0559802  
H219     H      0.942520000000     0.273110000000     0.001310000000     0.0408918  
H220     H      0.028490000000     0.118810000000     0.958640000000     0.0347456  
H221     H      0.618980000000     0.963660000000     0.036070000000     0.0309178  
H222     H      0.877090000000     0.031300000000     0.028900000000     0.0318812  
H223     H      0.718490000000     0.946420000000     0.005020000000     0.04044    
H224     H      0.777360000000     0.044610000000     0.997760000000     0.0406083  
H225     H      0.821520000000     0.032390000000     0.031250000000     0.0551498  
H226     H      0.720990000000     0.046100000000     0.998910000000     0.0408524  
H227     H      0.817170000000     0.954910000000     0.969200000000     0.0600261  
H228     H      0.675010000000     0.962470000000     0.037330000000     0.0546558  
H229     H      0.677390000000     0.032110000000     0.965960000000     0.0572641  
H230     H      0.774870000000     0.945010000000     0.004930000000     0.0409077  
H231     H      0.621420000000     0.033130000000     0.965570000000     0.0380496  
H232     H      0.375830000000     0.037890000000     0.029420000000     0.0342564  
H233     H      0.120910000000     0.963790000000     0.026090000000     0.0355545  
H234     H      0.276390000000     0.051300000000     0.995190000000     0.0408132  
H235     H      0.220580000000     0.951090000000     0.993290000000     0.0405882  
H236     H      0.176520000000     0.964120000000     0.027140000000     0.0565582  
H237     H      0.277010000000     0.951420000000     0.994300000000     0.0403895  
H238     H      0.177600000000     0.037270000000     0.959940000000     0.0594168  
H239     H      0.319790000000     0.037820000000     0.029320000000     0.0561807  
H240     H      0.320640000000     0.965470000000     0.960700000000     0.0550285  
H241     H      0.219960000000     0.050950000000     0.995060000000     0.0412121  
H242     H      0.376650000000     0.965810000000     0.961540000000     0.0310574  
H243     H      0.966550000000     0.958870000000     0.616800000000     0.034882   
H244     H      0.030610000000     0.029880000000     0.873210000000     0.0354136  
H245     H      0.998640000000     0.944090000000     0.716600000000     0.0411265  
H246     H      0.001840000000     0.044050000000     0.772800000000     0.0407822  
H247     H      0.032720000000     0.029940000000     0.817650000000     0.0562352  
H248     H      0.003180000000     0.043870000000     0.716420000000     0.0412732  
H249     H      0.963420000000     0.958780000000     0.814750000000     0.0598763  
H250     H      0.965980000000     0.958660000000     0.672800000000     0.0563579  
H251     H      0.036630000000     0.029060000000     0.673160000000     0.0560195  
H252     H      0.997450000000     0.944240000000     0.772950000000     0.041317   
H253     H      0.036390000000     0.029060000000     0.617130000000     0.034387   
H254     H      0.032750000000     0.963600000000     0.372630000000     0.0382258  
H255     H      0.964430000000     0.030190000000     0.116410000000     0.032185   
H256     H      0.999960000000     0.948480000000     0.274010000000     0.0411637  
H257     H      0.993840000000     0.047600000000     0.216600000000     0.040163   
H258     H      0.962590000000     0.031240000000     0.171990000000     0.0548917  
H259     H      0.993080000000     0.048150000000     0.273040000000     0.0401986  
H260     H      0.035280000000     0.963630000000     0.175870000000     0.0594651  
H261     H      0.032590000000     0.963650000000     0.316760000000     0.0571451  
H262     H      0.961670000000     0.033790000000     0.317570000000     0.0544565  
H263     H      0.000860000000     0.947970000000     0.217690000000     0.0416528  
H264     H      0.962790000000     0.033660000000     0.373670000000     0.0308715  
N1       N      0.494290000000     0.496900000000     0.614910000000    -0.183188   
N2       N      0.494290000000     0.501610000000     0.879160000000    -0.183693   
N3       N      0.433860000000     0.435370000000     0.604770000000    -0.0914496  
N4       N      0.498060000000     0.499100000000     0.114860000000    -0.182932   
N5       N      0.496900000000     0.499750000000     0.379060000000    -0.184378   
N6       N      0.561550000000     0.440840000000     0.104030000000    -0.0917936  
N7       N      0.502000000000     0.880300000000     0.499010000000    -0.18319    
N8       N      0.496820000000     0.616110000000     0.498000000000    -0.184183   
N9       N      0.564420000000     0.890340000000     0.558550000000    -0.0917184  
N10      N      0.496990000000     0.116480000000     0.498530000000    -0.183223   
N11      N      0.497070000000     0.380660000000     0.495420000000    -0.183956   
N12      N      0.436870000000     0.106430000000     0.560390000000    -0.0914219  
N13      N      0.491830000000     0.618850000000     0.998970000000    -0.182835   
N14      N      0.496470000000     0.882940000000     0.998230000000    -0.184268   
N15      N      0.426470000000     0.608000000000     0.055050000000    -0.0916745  
N16      N      0.501050000000     0.118800000000     0.997250000000    -0.182724   
N17      N      0.497190000000     0.383080000000     0.996640000000    -0.183923   
N18      N      0.571740000000     0.108470000000     0.947890000000    -0.0852993  
N19      N      0.501010000000     0.000930000000     0.879820000000    -0.182678   
N20      N      0.499190000000     0.998270000000     0.615790000000    -0.183628   
N21      N      0.561990000000     0.062050000000     0.889540000000    -0.0846426  
N22      N      0.495420000000     0.002160000000     0.115970000000    -0.182817   
N23      N      0.499740000000     0.998540000000     0.380190000000    -0.184258   
N24      N      0.437260000000     0.065820000000     0.105860000000    -0.0913254  
N25      N      0.878350000000     0.494350000000     0.501890000000    -0.18305    
N26      N      0.614180000000     0.498460000000     0.498100000000    -0.184155   
N27      N      0.888130000000     0.436680000000     0.566060000000    -0.091511   
N28      N      0.114470000000     0.499410000000     0.500130000000    -0.182661   
N29      N      0.378640000000     0.497960000000     0.495740000000    -0.183893   
N30      N      0.104750000000     0.566940000000     0.553870000000    -0.0851531  
N31      N      0.613260000000     0.503920000000     0.994790000000    -0.182818   
N32      N      0.877490000000     0.499990000000     0.000250000000    -0.18377    
N33      N      0.602930000000     0.565470000000     0.934450000000    -0.0918376  
N34      N      0.113180000000     0.491810000000     0.999550000000    -0.182819   
N35      N      0.377430000000     0.497980000000     0.998480000000    -0.183729   
N36      N      0.102440000000     0.430010000000     0.939530000000    -0.0915085  
N37      N      0.997100000000     0.498630000000     0.618650000000    -0.182561   
N38      N      0.994310000000     0.496330000000     0.882940000000    -0.183838   
N39      N      0.051900000000     0.565300000000     0.608850000000    -0.0848532  
N40      N      0.996530000000     0.493810000000     0.382540000000    -0.183198   
N41      N      0.994610000000     0.495850000000     0.118440000000    -0.183411   
N42      N      0.053010000000     0.428630000000     0.392620000000    -0.0914535  
N43      N      0.998310000000     0.878020000000     0.491880000000    -0.182674   
N44      N      0.994140000000     0.614070000000     0.498380000000    -0.183485   
N45      N      0.055920000000     0.886930000000     0.427490000000    -0.0848843  
N46      N      0.001440000000     0.114260000000     0.498410000000    -0.182918   
N47      N      0.998050000000     0.378520000000     0.501260000000    -0.183318   
N48      N      0.066940000000     0.103070000000     0.554340000000    -0.0913492  
N49      N      0.881700000000     0.996870000000     0.497690000000    -0.183235   
N50      N      0.617450000000     0.000330000000     0.497580000000    -0.183624   
N51      N      0.891380000000     0.936610000000     0.559480000000    -0.0914478  
N52      N      0.117850000000     0.994760000000     0.492470000000    -0.182733   
N53      N      0.382060000000     0.996370000000     0.497230000000    -0.184034   
N54      N      0.107780000000     0.940500000000     0.425420000000    -0.0850091  
N55      N      0.000390000000     0.614000000000     0.001550000000    -0.182695   
N56      N      0.001020000000     0.878260000000     0.996020000000    -0.182961   
N57      N      0.061850000000     0.602740000000     0.061840000000    -0.0915525  
N58      N      0.991420000000     0.377870000000     0.000660000000    -0.182738   
N59      N      0.994660000000     0.113660000000     0.994660000000    -0.183859   
N60      N      0.932300000000     0.387550000000     0.063490000000    -0.0917152  
N61      N      0.880100000000     0.992490000000     0.997810000000    -0.183178   
N62      N      0.615980000000     0.998450000000     0.000740000000    -0.183567   
N63      N      0.889000000000     0.923260000000     0.946200000000    -0.0854403  
N64      N      0.116210000000     0.000390000000     0.992610000000    -0.182038   
N65      N      0.380480000000     0.001840000000     0.995540000000    -0.183544   
N66      N      0.104480000000     0.064170000000     0.934890000000    -0.0914957  
N67      N      0.996190000000     0.994060000000     0.876990000000    -0.182746   
N68      N      0.001440000000     0.994010000000     0.612740000000    -0.183419   
N69      N      0.936230000000     0.932020000000     0.886970000000    -0.0849069  
N70      N      0.000580000000     0.996060000000     0.113130000000    -0.182972   
N71      N      0.997750000000     0.998580000000     0.377380000000    -0.183543   
N72      N      0.063850000000     0.937320000000     0.103880000000    -0.0912875  
O1       O      0.998180000000     0.995990000000     0.995100000000    -0.368878   
O2       O      0.981120000000     0.013590000000     0.066780000000    -0.301318   
O3       O      0.018930000000     0.925220000000     0.013060000000    -0.298972   
O4       O      0.927110000000     0.975730000000     0.978920000000    -0.293356   
O5       O      0.018370000000     0.978820000000     0.065830000000    -0.294936   
O6       O      0.926650000000     0.012090000000     0.014630000000    -0.301072   
O7       O      0.981560000000     0.924190000000     0.978140000000    -0.297716   
O8       O      0.014230000000     0.013650000000     0.923090000000    -0.298302   
O9       O      0.070600000000     0.980390000000     0.011450000000    -0.298527   
O10      O      0.979240000000     0.976640000000     0.924520000000    -0.293616   
O11      O      0.068260000000     0.016440000000     0.975520000000    -0.29448    
O12      O      0.013320000000     0.067680000000     0.975940000000    -0.299024   
O13      O      0.978470000000     0.066760000000     0.013400000000    -0.302168   
O14      O      0.999680000000     0.996240000000     0.495020000000    -0.368843   
O15      O      0.980360000000     0.016350000000     0.424330000000    -0.300236   
O16      O      0.070320000000     0.977850000000     0.475090000000    -0.293786   
O17      O      0.019180000000     0.066490000000     0.514200000000    -0.295577   
O18      O      0.016110000000     0.979740000000     0.423340000000    -0.297542   
O19      O      0.982010000000     0.068440000000     0.479380000000    -0.301027   
O20      O      0.071780000000     0.012770000000     0.512140000000    -0.298559   
O21      O      0.982900000000     0.976570000000     0.566210000000    -0.299615   
O22      O      0.016540000000     0.925230000000     0.474880000000    -0.293421   
O23      O      0.019290000000     0.012530000000     0.566360000000    -0.299219   
O24      O      0.981280000000     0.924440000000     0.511620000000    -0.299161   
O25      O      0.929000000000     0.978370000000     0.513980000000    -0.295724   
O26      O      0.928010000000     0.015390000000     0.478960000000    -0.300507   
O27      O      0.995130000000     0.495990000000     0.000680000000    -0.368003   
O28      O      0.013880000000     0.513060000000     0.072110000000    -0.299166   
O29      O      0.923240000000     0.480180000000     0.018320000000    -0.299844   
O30      O      0.980120000000     0.568280000000     0.983270000000    -0.301707   
O31      O      0.976200000000     0.478450000000     0.071850000000    -0.29951    
O32      O      0.016360000000     0.566170000000     0.019030000000    -0.295131   
O33      O      0.924610000000     0.517080000000     0.982900000000    -0.302424   
O34      O      0.011840000000     0.477310000000     0.929230000000    -0.299566   
O35      O      0.974800000000     0.425320000000     0.018650000000    -0.295198   
O36      O      0.977590000000     0.515320000000     0.929560000000    -0.302029   
O37      O      0.010640000000     0.424050000000     0.982470000000    -0.299287   
O38      O      0.065470000000     0.475590000000     0.981920000000    -0.295283   
O39      O      0.067280000000     0.510890000000     0.018620000000    -0.298986   
O40      O      0.996320000000     0.496330000000     0.500540000000    -0.36848    
O41      O      0.979390000000     0.424760000000     0.519470000000    -0.298965   
O42      O      0.014750000000     0.477460000000     0.429930000000    -0.295318   
O43      O      0.924540000000     0.512380000000     0.482500000000    -0.30148    
O44      O      0.015850000000     0.425220000000     0.483580000000    -0.299288   
O45      O      0.925780000000     0.477620000000     0.519760000000    -0.295082   
O46      O      0.977860000000     0.512620000000     0.428750000000    -0.30114    
O47      O      0.012960000000     0.568180000000     0.517010000000    -0.297253   
O48      O      0.068220000000     0.479500000000     0.482850000000    -0.299546   
O49      O      0.976460000000     0.567060000000     0.481180000000    -0.301334   
O50      O      0.067120000000     0.516470000000     0.517870000000    -0.29402    
O51      O      0.014110000000     0.516220000000     0.571230000000    -0.293395   
O52      O      0.979520000000     0.478820000000     0.572460000000    -0.298558   
O53      O      0.498220000000     0.000650000000     0.997950000000    -0.367386   
O54      O      0.427140000000     0.983380000000     0.978360000000    -0.302624   
O55      O      0.478920000000     0.019970000000     0.068410000000    -0.294947   
O56      O      0.514640000000     0.929150000000     0.016890000000    -0.302159   
O57      O      0.426740000000     0.020020000000     0.014090000000    -0.299395   
O58      O      0.479700000000     0.929630000000     0.979500000000    -0.30249    
O59      O      0.513950000000     0.982970000000     0.069900000000    -0.302213   
O60      O      0.570250000000     0.017070000000     0.981480000000    -0.297194   
O61      O      0.480870000000     0.072720000000     0.014700000000    -0.29864    
O62      O      0.568820000000     0.981430000000     0.018140000000    -0.301927   
O63      O      0.518530000000     0.071310000000     0.980420000000    -0.293847   
O64      O      0.518190000000     0.018320000000     0.927260000000    -0.294243   
O65      O      0.481640000000     0.982850000000     0.926020000000    -0.30203    
O66      O      0.499750000000     0.998400000000     0.497930000000    -0.36803    
O67      O      0.428110000000     0.014890000000     0.515830000000    -0.299621   
O68      O      0.482530000000     0.979580000000     0.426640000000    -0.302383   
O69      O      0.516290000000     0.070350000000     0.480230000000    -0.301898   
O70      O      0.428900000000     0.978940000000     0.479430000000    -0.302105   
O71      O      0.480130000000     0.069020000000     0.516100000000    -0.29612    
O72      O      0.517190000000     0.017230000000     0.426670000000    -0.301665   
O73      O      0.571290000000     0.981840000000     0.515990000000    -0.30032    
O74      O      0.483130000000     0.926450000000     0.480300000000    -0.301914   
O75      O      0.570690000000     0.017980000000     0.479750000000    -0.302059   
O76      O      0.519150000000     0.927770000000     0.516310000000    -0.295996   
O77      O      0.518030000000     0.980690000000     0.569430000000    -0.299562   
O78      O      0.481050000000     0.016020000000     0.569240000000    -0.299471   
O79      O      0.495130000000     0.500830000000     0.996830000000    -0.368133   
O80      O      0.424070000000     0.481490000000     0.979350000000    -0.302233   
O81      O      0.478090000000     0.517240000000     0.068950000000    -0.299346   
O82      O      0.515100000000     0.429860000000     0.014000000000    -0.300226   
O83      O      0.423690000000     0.516590000000     0.016580000000    -0.299208   
O84      O      0.478160000000     0.429210000000     0.978620000000    -0.302143   
O85      O      0.515390000000     0.482590000000     0.067190000000    -0.296029   
O86      O      0.565610000000     0.521300000000     0.978070000000    -0.295127   
O87      O      0.475410000000     0.571140000000     0.016370000000    -0.295021   
O88      O      0.567300000000     0.484240000000     0.012990000000    -0.299406   
O89      O      0.510870000000     0.572990000000     0.979810000000    -0.299172   
O90      O      0.511800000000     0.520350000000     0.925600000000    -0.299425   
O91      O      0.476980000000     0.482840000000     0.925640000000    -0.302295   
O92      O      0.496430000000     0.498420000000     0.496770000000    -0.367288   
O93      O      0.515010000000     0.481340000000     0.425370000000    -0.302917   
O94      O      0.425140000000     0.516750000000     0.478480000000    -0.302469   
O95      O      0.478590000000     0.426850000000     0.513730000000    -0.300347   
O96      O      0.478640000000     0.517330000000     0.425630000000    -0.302906   
O97      O      0.515090000000     0.427370000000     0.477890000000    -0.302463   
O98      O      0.425030000000     0.479630000000     0.513690000000    -0.300152   
O99      O      0.513270000000     0.515590000000     0.568800000000    -0.301775   
O100     O      0.478570000000     0.569910000000     0.479440000000    -0.302653   
O101     O      0.477450000000     0.479390000000     0.567400000000    -0.295895   
O102     O      0.514430000000     0.569410000000     0.515960000000    -0.30245    
O103     O      0.567530000000     0.516000000000     0.516290000000    -0.302281   
O104     O      0.567910000000     0.480970000000     0.478980000000    -0.302659   
Zn1      Zn     0.971860000000     0.021370000000     0.021710000000     0.453337   
Zn2      Zn     0.025800000000     0.970810000000     0.020530000000     0.455991   
Zn3      Zn     0.972270000000     0.969010000000     0.969900000000     0.459607   
Zn4      Zn     0.022690000000     0.022670000000     0.968120000000     0.456672   
Zn5      Zn     0.973250000000     0.023390000000     0.470090000000     0.45121    
Zn6      Zn     0.024920000000     0.970510000000     0.467980000000     0.460235   
Zn7      Zn     0.026770000000     0.021160000000     0.521160000000     0.457464   
Zn8      Zn     0.974090000000     0.969610000000     0.520960000000     0.45667    
Zn9      Zn     0.022410000000     0.520690000000     0.026890000000     0.456576   
Zn10     Zn     0.968130000000     0.470730000000     0.026610000000     0.456437   
Zn11     Zn     0.970110000000     0.523460000000     0.974890000000     0.452656   
Zn12     Zn     0.020000000000     0.469000000000     0.974350000000     0.456757   
Zn13     Zn     0.971100000000     0.470070000000     0.527340000000     0.455606   
Zn14     Zn     0.023100000000     0.470410000000     0.475100000000     0.457284   
Zn15     Zn     0.969560000000     0.521370000000     0.473940000000     0.451849   
Zn16     Zn     0.021850000000     0.523440000000     0.525920000000     0.460551   
Zn17     Zn     0.472440000000     0.974910000000     0.971160000000     0.452251   
Zn18     Zn     0.471920000000     0.027610000000     0.022970000000     0.455897   
Zn19     Zn     0.523170000000     0.974310000000     0.024980000000     0.452232   
Zn20     Zn     0.525480000000     0.026030000000     0.972550000000     0.460295   
Zn21     Zn     0.473060000000     0.023770000000     0.524020000000     0.45768    
Zn22     Zn     0.474350000000     0.971550000000     0.471840000000     0.452332   
Zn23     Zn     0.525250000000     0.025270000000     0.471930000000     0.452652   
Zn24     Zn     0.526300000000     0.973020000000     0.524170000000     0.456677   
Zn25     Zn     0.469340000000     0.474360000000     0.970830000000     0.453232   
Zn26     Zn     0.468840000000     0.525660000000     0.023950000000     0.456146   
Zn27     Zn     0.522480000000     0.475140000000     0.021890000000     0.457517   
Zn28     Zn     0.520070000000     0.528130000000     0.970840000000     0.455954   
Zn29     Zn     0.522840000000     0.472780000000     0.470510000000     0.453005   
Zn30     Zn     0.470440000000     0.524840000000     0.470880000000     0.453169   
Zn31     Zn     0.470170000000     0.471850000000     0.522100000000     0.457102   
Zn32     Zn     0.522170000000     0.524070000000     0.523730000000     0.45227    


