data_structure

_audit_creation_method RASPA-1.0
_audit_creation_date 2023-5-19
_audit_author_name 'Poobodin Mano'

_cell_length_a    43.1843
_cell_length_b    43.1327
_cell_length_c    43.1626
_cell_angle_alpha 90
_cell_angle_beta  90
_cell_angle_gamma 90
_cell_volume      80397.1

_symmetry_cell_setting          triclinic
_symmetry_space_group_name_Hall 'P 1'
_symmetry_space_group_name_H-M  'P 1'
_symmetry_Int_Tables_number     1

_symmetry_equiv_pos_as_xyz 'x,y,z'

loop_
_atom_site_label
_atom_site_type_symbol
_atom_site_fract_x
_atom_site_fract_y
_atom_site_fract_z
_atom_site_charge
C1       C      0.991870000000     0.989080000000     0.070490000000     0.369682   
C2       C      0.074230000000     0.994950000000     0.980970000000     0.37119    
C3       C      0.985660000000     0.908340000000     0.980110000000     0.370828   
C4       C      0.987350000000     0.998930000000     0.898570000000     0.363408   
C5       C      0.987150000000     0.080610000000     0.989640000000     0.365795   
C6       C      0.901770000000     0.993530000000     0.984890000000     0.370833   
C7       C      0.988420000000     0.989670000000     0.398330000000     0.365615   
C8       C      0.076480000000     0.990480000000     0.483030000000     0.366887   
C9       C      0.993440000000     0.077200000000     0.482740000000     0.370779   
C10      C      0.992640000000     0.990570000000     0.571210000000     0.370209   
C11      C      0.989960000000     0.904880000000     0.485980000000     0.36516    
C12      C      0.904420000000     0.994850000000     0.487980000000     0.370467   
C13      C      0.994270000000     0.490100000000     0.910750000000     0.367119   
C14      C      0.906790000000     0.495030000000     0.994990000000     0.367859   
C15      C      0.993770000000     0.408530000000     0.002440000000     0.371116   
C16      C      0.990180000000     0.500170000000     0.082850000000     0.371134   
C17      C      0.993650000000     0.580760000000     0.992400000000     0.366043   
C18      C      0.079270000000     0.494570000000     0.998210000000     0.367778   
C19      C      0.990340000000     0.493600000000     0.410730000000     0.367188   
C20      C      0.076280000000     0.488160000000     0.497830000000     0.372637   
C21      C      0.989330000000     0.577140000000     0.500180000000     0.369081   
C22      C      0.994510000000     0.485790000000     0.583140000000     0.371771   
C23      C      0.987070000000     0.404940000000     0.493140000000     0.365797   
C24      C      0.904230000000     0.493880000000     0.500660000000     0.372091   
C25      C      0.402270000000     0.988030000000     0.989630000000     0.36575    
C26      C      0.484280000000     0.985050000000     0.076750000000     0.37146    
C27      C      0.492300000000     0.902850000000     0.987670000000     0.372066   
C28      C      0.574240000000     0.993020000000     0.994700000000     0.366294   
C29      C      0.486480000000     0.074680000000     0.989670000000     0.367912   
C30      C      0.491470000000     0.986440000000     0.904400000000     0.37108    
C31      C      0.404150000000     0.984870000000     0.491830000000     0.371138   
C32      C      0.489830000000     0.986290000000     0.404510000000     0.366738   
C33      C      0.487880000000     0.074030000000     0.489770000000     0.36902    
C34      C      0.576250000000     0.988350000000     0.488500000000     0.365736   
C35      C      0.489240000000     0.901730000000     0.495300000000     0.373081   
C36      C      0.491850000000     0.990670000000     0.576750000000     0.367027   
C37      C      0.406980000000     0.491920000000     0.001930000000     0.373335   
C38      C      0.493100000000     0.402710000000     0.998030000000     0.372462   
C39      C      0.492040000000     0.489340000000     0.911420000000     0.372308   
C40      C      0.579340000000     0.487370000000     0.997630000000     0.371915   
C41      C      0.496310000000     0.486890000000     0.083550000000     0.373205   
C42      C      0.494240000000     0.574820000000     0.996960000000     0.368398   
C43      C      0.492080000000     0.401660000000     0.492700000000     0.37336    
C44      C      0.404370000000     0.488790000000     0.497510000000     0.36774    
C45      C      0.488430000000     0.484940000000     0.583470000000     0.367983   
C46      C      0.492370000000     0.574040000000     0.498670000000     0.368837   
C47      C      0.489840000000     0.490100000000     0.411360000000     0.369135   
C48      C      0.576320000000     0.487100000000     0.498850000000     0.368304   
C49      C      0.475380000000     0.509880000000     0.829860000000    -0.139252   
C50      C      0.504360000000     0.461740000000     0.630980000000     0.0705543  
C51      C      0.469860000000     0.504470000000     0.631670000000     0.0705008  
C52      C      0.503940000000     0.460340000000     0.663300000000    -0.0898468  
C53      C      0.513760000000     0.474440000000     0.731210000000    -0.0369327  
C54      C      0.514120000000     0.474840000000     0.763570000000    -0.0313255  
C55      C      0.486430000000     0.481210000000     0.714810000000    -0.00420156 
C56      C      0.469120000000     0.503880000000     0.664010000000    -0.0897779  
C57      C      0.487240000000     0.482290000000     0.780310000000    -0.0146622  
C58      C      0.503370000000     0.461880000000     0.832130000000    -0.103989   
C59      C      0.459840000000     0.488810000000     0.764030000000    -0.0314473  
C60      C      0.504890000000     0.464770000000     0.864250000000     0.0765388  
C61      C      0.478610000000     0.513290000000     0.862120000000     0.184061   
C62      C      0.459390000000     0.488130000000     0.731660000000    -0.0370519  
C63      C      0.486350000000     0.481690000000     0.680310000000     0.0480748  
C64      C      0.488150000000     0.484350000000     0.814610000000     0.0701443  
C65      C      0.519920000000     0.501320000000     0.164520000000    -0.139332   
C66      C      0.467880000000     0.474520000000     0.363150000000     0.0706663  
C67      C      0.511500000000     0.507930000000     0.363830000000     0.0705925  
C68      C      0.467730000000     0.474680000000     0.330800000000    -0.0905987  
C69      C      0.464100000000     0.494850000000     0.262830000000    -0.0375932  
C70      C      0.465220000000     0.494300000000     0.230460000000    -0.0309834  
C71      C      0.491250000000     0.490970000000     0.280330000000    -0.00434227 
C72      C      0.512210000000     0.508320000000     0.331510000000    -0.0907098  
C73      C      0.493480000000     0.489580000000     0.214940000000    -0.0148229  
C74      C      0.471590000000     0.473880000000     0.163430000000    -0.104318   
C75      C      0.520560000000     0.485460000000     0.232590000000    -0.0309025  
C76      C      0.473430000000     0.472790000000     0.131210000000     0.0752511  
C77      C      0.522220000000     0.498510000000     0.132170000000     0.183741   
C78      C      0.519480000000     0.486320000000     0.264890000000    -0.0376875  
C79      C      0.490240000000     0.491490000000     0.314640000000     0.048494   
C80      C      0.494760000000     0.488630000000     0.180500000000     0.0696772  
C81      C      0.467560000000     0.819730000000     0.483200000000    -0.139789   
C82      C      0.510940000000     0.621540000000     0.477500000000     0.070647   
C83      C      0.476560000000     0.622370000000     0.520340000000     0.0705969  
C84      C      0.511790000000     0.653890000000     0.477000000000    -0.0907609  
C85      C      0.490560000000     0.721280000000     0.470440000000    -0.0373308  
C86      C      0.489930000000     0.753660000000     0.470090000000    -0.0313247  
C87      C      0.495180000000     0.705170000000     0.498350000000    -0.00472016 
C88      C      0.477250000000     0.654740000000     0.520770000000    -0.0906326  
C89      C      0.494370000000     0.770540000000     0.497560000000    -0.0151127  
C90      C      0.514680000000     0.822760000000     0.512510000000    -0.104274   
C91      C      0.499540000000     0.754450000000     0.525390000000    -0.031364   
C92      C      0.512310000000     0.854990000000     0.512210000000     0.0762846  
C93      C      0.464530000000     0.852150000000     0.484750000000     0.184217   
C94      C      0.499720000000     0.722050000000     0.525810000000    -0.0373262  
C95      C      0.494850000000     0.670840000000     0.498810000000     0.0485496  
C96      C      0.492510000000     0.804830000000     0.497360000000     0.0703935  
C97      C      0.513780000000     0.319680000000     0.504990000000    -0.139842   
C98      C      0.469250000000     0.121550000000     0.510880000000     0.070761   
C99      C      0.504150000000     0.122330000000     0.468440000000     0.0706535  
C100     C      0.468570000000     0.153910000000     0.511450000000    -0.0907166  
C101     C      0.490250000000     0.221290000000     0.518170000000    -0.0372942  
C102     C      0.491080000000     0.253670000000     0.518430000000    -0.0313645  
C103     C      0.485600000000     0.205140000000     0.490280000000    -0.00472869 
C104     C      0.503600000000     0.154700000000     0.468070000000    -0.090707   
C105     C      0.486800000000     0.270490000000     0.490890000000    -0.0151151  
C106     C      0.466550000000     0.322660000000     0.475840000000    -0.10444    
C107     C      0.481590000000     0.254360000000     0.463100000000    -0.0313181  
C108     C      0.468970000000     0.354880000000     0.476010000000     0.0765444  
C109     C      0.516850000000     0.352090000000     0.503290000000     0.184357   
C110     C      0.481230000000     0.221960000000     0.462760000000    -0.0373494  
C111     C      0.485820000000     0.170820000000     0.489860000000     0.0486478  
C112     C      0.488740000000     0.304770000000     0.490990000000     0.0705514  
C113     C      0.478790000000     0.820810000000     0.966750000000    -0.139504   
C114     C      0.512270000000     0.622980000000     0.017170000000     0.0705689  
C115     C      0.476240000000     0.622480000000     0.975730000000     0.0700157  
C116     C      0.512200000000     0.655350000000     0.017380000000    -0.0898674  
C117     C      0.520890000000     0.723100000000     0.001070000000    -0.0367394  
C118     C      0.520710000000     0.755470000000     0.000140000000    -0.031116   
C119     C      0.493520000000     0.706200000000     0.995910000000    -0.00479855 
C120     C      0.475800000000     0.654810000000     0.975160000000    -0.0906268  
C121     C      0.493210000000     0.771650000000     0.993800000000    -0.0151419  
C122     C      0.508980000000     0.823900000000     0.013330000000    -0.10378    
C123     C      0.465800000000     0.754860000000     0.988850000000    -0.031499   
C124     C      0.509040000000     0.856080000000     0.010650000000     0.0765891  
C125     C      0.480520000000     0.853200000000     0.963500000000     0.183341   
C126     C      0.465910000000     0.722510000000     0.990030000000    -0.0371772  
C127     C      0.493810000000     0.671720000000     0.996210000000     0.0478058  
C128     C      0.493280000000     0.805940000000     0.991570000000     0.0697889  
C129     C      0.477320000000     0.321510000000     0.020240000000    -0.138671   
C130     C      0.502510000000     0.122760000000     0.967630000000     0.0705455  
C131     C      0.468660000000     0.122430000000     0.010900000000     0.0710943  
C132     C      0.502540000000     0.155140000000     0.967370000000    -0.0904873  
C133     C      0.482830000000     0.223460000000     0.963670000000    -0.0373851  
C134     C      0.483640000000     0.255850000000     0.964910000000    -0.0309885  
C135     C      0.486550000000     0.205800000000     0.990770000000    -0.00467356 
C136     C      0.468490000000     0.154770000000     0.011530000000    -0.0903045  
C137     C      0.488490000000     0.271240000000     0.993250000000    -0.0148917  
C138     C      0.504270000000     0.322950000000     0.971660000000    -0.103453   
C139     C      0.492570000000     0.253400000000     0.020250000000    -0.030553   
C140     C      0.505800000000     0.355160000000     0.973960000000     0.0754221  
C141     C      0.480690000000     0.353780000000     0.023070000000     0.184145   
C142     C      0.491410000000     0.221100000000     0.019040000000    -0.0372302  
C143     C      0.485660000000     0.171480000000     0.989690000000     0.048246   
C144     C      0.489610000000     0.305700000000     0.994780000000     0.069305   
C145     C      0.477530000000     0.965380000000     0.822460000000    -0.138897   
C146     C      0.470250000000     0.008500000000     0.624320000000     0.0706348  
C147     C      0.514580000000     0.976060000000     0.624930000000     0.06977    
C148     C      0.469870000000     0.009330000000     0.656650000000    -0.0895802  
C149     C      0.464410000000     0.988240000000     0.724060000000    -0.0376985  
C150     C      0.464240000000     0.987420000000     0.756420000000    -0.0317979  
C151     C      0.492120000000     0.993500000000     0.707830000000    -0.00422541 
C152     C      0.515100000000     0.976710000000     0.657270000000    -0.0902593  
C153     C      0.491710000000     0.992240000000     0.773180000000    -0.0143994  
C154     C      0.507310000000     0.012240000000     0.825300000000    -0.102579   
C155     C      0.519330000000     0.998030000000     0.756960000000    -0.0327621  
C156     C      0.507510000000     0.009670000000     0.857480000000     0.076722   
C157     C      0.479500000000     0.962170000000     0.854830000000     0.182759   
C158     C      0.519560000000     0.998460000000     0.724590000000    -0.0385604  
C159     C      0.492450000000     0.993300000000     0.673490000000     0.046614   
C160     C      0.491760000000     0.990270000000     0.807470000000     0.0683194  
C161     C      0.461380000000     0.998680000000     0.158190000000    -0.141092   
C162     C      0.506370000000     0.007560000000     0.356310000000     0.0713322  
C163     C      0.473000000000     0.963900000000     0.356900000000     0.0700914  
C164     C      0.506260000000     0.007750000000     0.323950000000    -0.0893302  
C165     C      0.493440000000     0.957420000000     0.256950000000    -0.0374244  
C166     C      0.492890000000     0.957240000000     0.224580000000    -0.0308799  
C167     C      0.488980000000     0.985180000000     0.273370000000    -0.00542351 
C168     C      0.472730000000     0.963170000000     0.324540000000    -0.0902843  
C169     C      0.487450000000     0.984750000000     0.208010000000    -0.016601   
C170     C      0.508080000000     0.968600000000     0.156320000000    -0.10452    
C171     C      0.482940000000     0.012510000000     0.224430000000    -0.0298633  
C172     C      0.506180000000     0.968410000000     0.124090000000     0.0763877  
C173     C      0.458850000000     0.996720000000     0.125750000000     0.183329   
C174     C      0.483910000000     0.012760000000     0.256790000000    -0.0364054  
C175     C      0.489370000000     0.985340000000     0.307720000000     0.0472819  
C176     C      0.485900000000     0.984370000000     0.173690000000     0.07098    
C177     C      0.822730000000     0.516570000000     0.487290000000    -0.138813   
C178     C      0.624050000000     0.466370000000     0.517450000000     0.0697839  
C179     C      0.624330000000     0.508050000000     0.481610000000     0.0704408  
C180     C      0.656410000000     0.466180000000     0.518090000000    -0.0908054  
C181     C      0.724680000000     0.461070000000     0.498470000000    -0.037446   
C182     C      0.757060000000     0.462120000000     0.498470000000    -0.031077   
C183     C      0.707320000000     0.488470000000     0.501230000000    -0.00447387 
C184     C      0.656620000000     0.508740000000     0.482010000000    -0.0908431  
C185     C      0.772720000000     0.490560000000     0.501530000000    -0.0144832  
C186     C      0.824750000000     0.469300000000     0.516480000000    -0.103201   
C187     C      0.755190000000     0.517870000000     0.504840000000    -0.0309554  
C188     C      0.856980000000     0.471270000000     0.516580000000     0.0760369  
C189     C      0.855120000000     0.519120000000     0.489150000000     0.183322   
C190     C      0.722900000000     0.516840000000     0.504500000000    -0.0375853  
C191     C      0.673020000000     0.487670000000     0.500380000000     0.0483637  
C192     C      0.807180000000     0.491890000000     0.501400000000     0.0695414  
C193     C      0.157130000000     0.463050000000     0.484660000000    -0.138646   
C194     C      0.356570000000     0.510940000000     0.514130000000     0.0705924  
C195     C      0.356420000000     0.467570000000     0.480360000000     0.0706105  
C196     C      0.324220000000     0.511670000000     0.513990000000    -0.090433   
C197     C      0.256600000000     0.517020000000     0.492380000000    -0.0374195  
C198     C      0.224210000000     0.516660000000     0.492070000000    -0.030913   
C199     C      0.273340000000     0.489490000000     0.497030000000    -0.0043145  
C200     C      0.324110000000     0.467390000000     0.480060000000    -0.0906585  
C201     C      0.207880000000     0.488810000000     0.496750000000    -0.0144167  
C202     C      0.156460000000     0.512330000000     0.510370000000    -0.103208   
C203     C      0.224800000000     0.461370000000     0.501770000000    -0.0308106  
C204     C      0.124210000000     0.511080000000     0.510990000000     0.0762179  
C205     C      0.124710000000     0.461300000000     0.487140000000     0.183853   
C206     C      0.257120000000     0.461680000000     0.501690000000    -0.037561   
C207     C      0.307650000000     0.489620000000     0.496950000000     0.0485062  
C208     C      0.173380000000     0.488320000000     0.496820000000     0.0696458  
C209     C      0.661030000000     0.466920000000     0.981460000000    -0.139378   
C210     C      0.859210000000     0.512100000000     0.972690000000     0.0702071  
C211     C      0.858600000000     0.478340000000     0.016060000000     0.0707214  
C212     C      0.826850000000     0.512380000000     0.971940000000    -0.0905402  
C213     C      0.759230000000     0.490540000000     0.966340000000    -0.0373714  
C214     C      0.726860000000     0.489550000000     0.966560000000    -0.031397   
C215     C      0.775740000000     0.495800000000     0.993900000000    -0.00501036 
C216     C      0.826280000000     0.478490000000     0.016250000000    -0.0903255  
C217     C      0.710420000000     0.494300000000     0.994260000000    -0.0154533  
C218     C      0.658560000000     0.514350000000     0.010390000000    -0.104158   
C219     C      0.726940000000     0.500140000000     0.021680000000    -0.03106    
C220     C      0.626450000000     0.511490000000     0.011530000000     0.0753541  
C221     C      0.628760000000     0.463420000000     0.984440000000     0.183207   
C222     C      0.759280000000     0.500680000000     0.021540000000    -0.0371688  
C223     C      0.810050000000     0.495590000000     0.994000000000     0.0480207  
C224     C      0.676160000000     0.492200000000     0.994840000000     0.0695804  
C225     C      0.325670000000     0.479190000000     0.025940000000    -0.139301   
C226     C      0.127160000000     0.472330000000     0.982100000000     0.0704338  
C227     C      0.127180000000     0.516150000000     0.015280000000     0.0707552  
C228     C      0.159480000000     0.471600000000     0.982320000000    -0.0905742  
C229     C      0.227110000000     0.521000000000     0.994300000000    -0.0370347  
C230     C      0.259470000000     0.520710000000     0.994470000000    -0.031914   
C231     C      0.210350000000     0.493550000000     0.999390000000    -0.00516294 
C232     C      0.159530000000     0.516360000000     0.015630000000    -0.0901419  
C233     C      0.275700000000     0.493050000000     0.000160000000    -0.0144329  
C234     C      0.327250000000     0.507840000000     0.978330000000    -0.104334   
C235     C      0.258940000000     0.465620000000     0.005380000000    -0.0315876  
C236     C      0.359480000000     0.507800000000     0.979850000000     0.0760781  
C237     C      0.358140000000     0.480990000000     0.028080000000     0.184041   
C238     C      0.226580000000     0.465820000000     0.004770000000    -0.0366511  
C239     C      0.176030000000     0.493850000000     0.999120000000     0.048151   
C240     C      0.310010000000     0.492950000000     0.001210000000     0.0704803  
C241     C      0.982640000000     0.460220000000     0.664070000000    -0.139582   
C242     C      0.973300000000     0.505590000000     0.862130000000     0.0704062  
C243     C      0.015920000000     0.470940000000     0.863630000000     0.070827   
C244     C      0.973140000000     0.504700000000     0.829820000000    -0.090642   
C245     C      0.023170000000     0.490900000000     0.763400000000    -0.0365635  
C246     C      0.023340000000     0.490860000000     0.731010000000    -0.0306375  
C247     C      0.995440000000     0.486130000000     0.779730000000    -0.00539797 
C248     C      0.016720000000     0.469940000000     0.831270000000    -0.0896512  
C249     C      0.995860000000     0.485570000000     0.714390000000    -0.0157606  
C250     C      0.010830000000     0.508150000000     0.663190000000    -0.103312   
C251     C      0.968190000000     0.480520000000     0.730730000000    -0.0313667  
C252     C      0.010700000000     0.507150000000     0.630910000000     0.0766419  
C253     C      0.984410000000     0.458610000000     0.631570000000     0.183738   
C254     C      0.967940000000     0.481050000000     0.763100000000    -0.0373584  
C255     C      0.995100000000     0.486870000000     0.814040000000     0.0476961  
C256     C      0.996120000000     0.484880000000     0.680070000000     0.0694771  
C257     C      0.004430000000     0.523670000000     0.164120000000    -0.138475   
C258     C      0.012350000000     0.478160000000     0.362490000000     0.0709976  
C259     C      0.969040000000     0.511960000000     0.363170000000     0.0702373  
C260     C      0.012940000000     0.478870000000     0.330150000000    -0.0896042  
C261     C      0.963130000000     0.492290000000     0.263100000000    -0.0374245  
C262     C      0.963070000000     0.492700000000     0.230720000000    -0.0313669  
C263     C      0.990810000000     0.496780000000     0.279600000000    -0.00528631 
C264     C      0.968700000000     0.512810000000     0.330810000000    -0.0902517  
C265     C      0.990610000000     0.498000000000     0.214220000000    -0.0158094  
C266     C      0.974790000000     0.476650000000     0.162750000000    -0.104464   
C267     C      0.018270000000     0.502650000000     0.230720000000    -0.0306396  
C268     C      0.974450000000     0.478290000000     0.130510000000     0.0755302  
C269     C      0.002290000000     0.525950000000     0.131650000000     0.184019   
C270     C      0.018410000000     0.501810000000     0.263100000000    -0.0366875  
C271     C      0.990850000000     0.496190000000     0.313950000000     0.0475217  
C272     C      0.990350000000     0.499180000000     0.179880000000     0.0692014  
C273     C      0.967870000000     0.658510000000     0.484120000000    -0.139581   
C274     C      0.008490000000     0.856600000000     0.466450000000     0.0703121  
C275     C      0.973990000000     0.857290000000     0.509180000000     0.0690512  
C276     C      0.009880000000     0.824250000000     0.467540000000    -0.0892423  
C277     C      0.999540000000     0.758620000000     0.520220000000    -0.0405527  
C278     C      0.000010000000     0.726230000000     0.521760000000    -0.0285779  
C279     C      0.994570000000     0.773760000000     0.491810000000    -0.00337871 
C280     C      0.975260000000     0.824970000000     0.511230000000    -0.0902942  
C281     C      0.995010000000     0.708370000000     0.495000000000    -0.0166709  
C282     C      0.015370000000     0.656910000000     0.512890000000    -0.103033   
C283     C      0.990300000000     0.723500000000     0.466560000000    -0.0307059  
C284     C      0.012840000000     0.624670000000     0.514480000000     0.0760824  
C285     C      0.964680000000     0.626280000000     0.487680000000     0.183244   
C286     C      0.990320000000     0.755870000000     0.464930000000    -0.0385263  
C287     C      0.993310000000     0.808090000000     0.490240000000     0.0464315  
C288     C      0.993120000000     0.674080000000     0.496950000000     0.0693671  
C289     C      0.014160000000     0.158840000000     0.498890000000    -0.138354   
C290     C      0.968320000000     0.356590000000     0.512300000000     0.0688406  
C291     C      0.002820000000     0.357520000000     0.469560000000     0.0696546  
C292     C      0.967680000000     0.324200000000     0.511600000000    -0.090743   
C293     C      0.980710000000     0.257980000000     0.460210000000    -0.0376104  
C294     C      0.981510000000     0.225600000000     0.459270000000    -0.0316429  
C295     C      0.984820000000     0.273790000000     0.488370000000    -0.00479545 
C296     C      0.002330000000     0.325180000000     0.467930000000    -0.089871   
C297     C      0.986890000000     0.208420000000     0.486400000000    -0.0149449  
C298     C      0.967430000000     0.156660000000     0.468900000000    -0.104156   
C299     C      0.990880000000     0.224220000000     0.514580000000    -0.0318605  
C300     C      0.970180000000     0.124480000000     0.467720000000     0.0753773  
C301     C      0.017570000000     0.126530000000     0.495880000000     0.184053   
C302     C      0.989620000000     0.256590000000     0.515600000000    -0.0376783  
C303     C      0.984810000000     0.308160000000     0.489240000000     0.0469192  
C304     C      0.989200000000     0.174140000000     0.485130000000     0.0687639  
C305     C      0.823330000000     0.019080000000     0.474740000000    -0.137124   
C306     C      0.624780000000     0.967200000000     0.504300000000     0.0699281  
C307     C      0.623490000000     0.009970000000     0.469810000000     0.0711267  
C308     C      0.657130000000     0.967210000000     0.503760000000    -0.0900358  
C309     C      0.724800000000     0.963200000000     0.482440000000    -0.0373805  
C310     C      0.757170000000     0.964310000000     0.482520000000    -0.0309366  
C311     C      0.707340000000     0.990430000000     0.486180000000    -0.00520412 
C312     C      0.655820000000     0.010880000000     0.469080000000    -0.0890091  
C313     C      0.772820000000     0.992630000000     0.486670000000    -0.0152853  
C314     C      0.824490000000     0.970440000000     0.501620000000    -0.102758   
C315     C      0.755200000000     0.019810000000     0.490610000000    -0.029712   
C316     C      0.856730000000     0.972090000000     0.502340000000     0.0756814  
C317     C      0.855740000000     0.021230000000     0.477240000000     0.184409   
C318     C      0.722880000000     0.018740000000     0.490170000000    -0.0365055  
C319     C      0.673010000000     0.989380000000     0.486210000000     0.0470695  
C320     C      0.807330000000     0.993840000000     0.487300000000     0.0682439  
C321     C      0.322280000000     0.999450000000     0.512110000000    -0.141186   
C322     C      0.123970000000     0.972570000000     0.461270000000     0.0696909  
C323     C      0.124740000000     0.008350000000     0.502940000000     0.070309   
C324     C      0.156310000000     0.972260000000     0.460400000000    -0.0897684  
C325     C      0.224910000000     0.016570000000     0.488120000000    -0.0362539  
C326     C      0.257230000000     0.015720000000     0.489380000000    -0.0301928  
C327     C      0.207830000000     0.989590000000     0.481450000000    -0.00526908 
C328     C      0.157070000000     0.008340000000     0.502910000000    -0.0890147  
C329     C      0.273240000000     0.987980000000     0.483620000000    -0.0164545  
C330     C      0.325310000000     0.971680000000     0.464030000000    -0.104597   
C331     C      0.256330000000     0.961160000000     0.476310000000    -0.0311892  
C332     C      0.357410000000     0.970560000000     0.467190000000     0.0754085  
C333     C      0.354500000000     0.996540000000     0.515810000000     0.183138   
C334     C      0.223990000000     0.961910000000     0.475380000000    -0.0371384  
C335     C      0.173340000000     0.990170000000     0.481470000000     0.0466352  
C336     C      0.307450000000     0.986780000000     0.486300000000     0.0706627  
C337     C      0.964690000000     0.826730000000     0.995480000000    -0.139931   
C338     C      0.011080000000     0.629580000000     0.011560000000     0.0704312  
C339     C      0.977210000000     0.627730000000     0.968360000000     0.0698065  
C340     C      0.011390000000     0.661950000000     0.010470000000    -0.0894214  
C341     C      0.998540000000     0.727340000000     0.957930000000    -0.0383832  
C342     C      0.997720000000     0.759720000000     0.956590000000    -0.0321271  
C343     C      0.994260000000     0.711870000000     0.986270000000    -0.00455302 
C344     C      0.977370000000     0.660050000000     0.966330000000    -0.0902019  
C345     C      0.992160000000     0.777220000000     0.983470000000    -0.0152297  
C346     C      0.011470000000     0.828940000000     0.965550000000    -0.103195   
C347     C      0.988020000000     0.761750000000     0.011820000000    -0.0312205  
C348     C      0.008730000000     0.861140000000     0.964420000000     0.0761054  
C349     C      0.961320000000     0.859030000000     0.992540000000     0.18237    
C350     C      0.989280000000     0.729400000000     0.013250000000    -0.0375287  
C351     C      0.994460000000     0.677530000000     0.987630000000     0.0466278  
C352     C      0.989720000000     0.811470000000     0.981830000000     0.0688721  
C353     C      0.976880000000     0.327350000000     0.024890000000    -0.139228   
C354     C      0.965550000000     0.129480000000     0.975390000000     0.0699823  
C355     C      0.008220000000     0.127490000000     0.009900000000     0.0711223  
C356     C      0.965260000000     0.161850000000     0.976980000000    -0.0899926  
C357     C      0.960700000000     0.228790000000     0.001210000000    -0.0371376  
C358     C      0.961600000000     0.261180000000     0.002710000000    -0.0306385  
C359     C      0.987980000000     0.211720000000     0.996280000000    -0.00540732 
C360     C      0.008860000000     0.159810000000     0.011640000000    -0.0892413  
C361     C      0.989710000000     0.277110000000     0.998800000000    -0.0166177  
C362     C      0.007150000000     0.328410000000     0.978310000000    -0.103701   
C363     C      0.016930000000     0.260030000000     0.993600000000    -0.0302186  
C364     C      0.008410000000     0.360610000000     0.980330000000     0.0764505  
C365     C      0.979930000000     0.359760000000     0.027580000000     0.183456   
C366     C      0.016110000000     0.227670000000     0.992550000000    -0.0367674  
C367     C      0.987250000000     0.177370000000     0.995040000000     0.047108   
C368     C      0.990820000000     0.311450000000     0.000400000000     0.0702133  
C369     C      0.819590000000     0.008820000000     0.966020000000    -0.137903   
C370     C      0.622060000000     0.978030000000     0.017910000000     0.0701576  
C371     C      0.621970000000     0.013120000000     0.975650000000     0.0709427  
C372     C      0.654370000000     0.978930000000     0.019110000000    -0.0893148  
C373     C      0.722130000000     0.969760000000     0.003860000000    -0.0367366  
C374     C      0.754460000000     0.969520000000     0.002570000000    -0.0310625  
C375     C      0.705460000000     0.997110000000     0.997730000000    -0.00552191 
C376     C      0.654270000000     0.014340000000     0.976030000000    -0.088557   
C377     C      0.770880000000     0.996550000000     0.994870000000    -0.0160568  
C378     C      0.823290000000     0.980610000000     0.013790000000    -0.103501   
C379     C      0.754350000000     0.023980000000     0.989080000000    -0.0303822  
C380     C      0.855330000000     0.979500000000     0.010170000000     0.0752315  
C381     C      0.851790000000     0.005990000000     0.961870000000     0.184059   
C382     C      0.722030000000     0.024310000000     0.990650000000    -0.036094   
C383     C      0.670970000000     0.996990000000     0.997820000000     0.0464057  
C384     C      0.805090000000     0.995810000000     0.991860000000     0.0682299  
C385     C      0.155470000000     0.979000000000     0.958740000000    -0.138696   
C386     C      0.354230000000     0.005980000000     0.010050000000     0.0707667  
C387     C      0.354510000000     0.970120000000     0.968450000000     0.069698   
C388     C      0.321900000000     0.006360000000     0.010070000000    -0.0884405  
C389     C      0.254750000000     0.016950000000     0.993630000000    -0.0360683  
C390     C      0.222420000000     0.017740000000     0.992720000000    -0.0304566  
C391     C      0.270870000000     0.989200000000     0.987800000000    -0.00519694 
C392     C      0.322160000000     0.970200000000     0.967630000000    -0.0894572  
C393     C      0.205420000000     0.990900000000     0.985650000000    -0.0155725  
C394     C      0.153960000000     0.007500000000     0.006440000000    -0.102129   
C395     C      0.221410000000     0.963160000000     0.979770000000    -0.0315773  
C396     C      0.121800000000     0.008820000000     0.004160000000     0.0770928  
C397     C      0.123140000000     0.982050000000     0.955910000000     0.183162   
C398     C      0.253750000000     0.962270000000     0.980990000000    -0.0371804  
C399     C      0.305370000000     0.988480000000     0.988580000000     0.0462135  
C400     C      0.171120000000     0.992040000000     0.983880000000     0.0682394  
C401     C      0.976340000000     0.972090000000     0.653330000000    -0.138008   
C402     C      0.966520000000     0.018380000000     0.851160000000     0.0693087  
C403     C      0.008960000000     0.983500000000     0.850220000000     0.0694403  
C404     C      0.966210000000     0.019470000000     0.818770000000    -0.090843   
C405     C      0.015930000000     0.007290000000     0.751190000000    -0.0360537  
C406     C      0.016350000000     0.006300000000     0.718840000000    -0.0318589  
C407     C      0.988090000000     0.002990000000     0.767480000000    -0.00506345 
C408     C      0.009610000000     0.984480000000     0.817910000000    -0.0916673  
C409     C      0.989020000000     0.000580000000     0.702150000000    -0.0121778  
C410     C      0.005970000000     0.019010000000     0.649880000000    -0.100996   
C411     C      0.961100000000     0.996620000000     0.718410000000    -0.0337857  
C412     C      0.007230000000     0.015350000000     0.617820000000     0.0767813  
C413     C      0.979430000000     0.967780000000     0.621160000000     0.182858   
C414     C      0.960600000000     0.998070000000     0.750780000000    -0.0378608  
C415     C      0.988000000000     0.002460000000     0.801820000000     0.0486414  
C416     C      0.989920000000     0.997570000000     0.667930000000     0.0656033  
C417     C      0.976820000000     0.965550000000     0.151480000000    -0.138933   
C418     C      0.966810000000     0.006980000000     0.350500000000     0.0707683  
C419     C      0.009240000000     0.972090000000     0.350310000000     0.0704514  
C420     C      0.966510000000     0.007440000000     0.318120000000    -0.0886902  
C421     C      0.016900000000     0.995230000000     0.251200000000    -0.0367908  
C422     C      0.017500000000     0.995470000000     0.218830000000    -0.0308033  
C423     C      0.988880000000     0.990890000000     0.267170000000    -0.00504176 
C424     C      0.009870000000     0.972390000000     0.317960000000    -0.0893058  
C425     C      0.990150000000     0.990950000000     0.201780000000    -0.0153944  
C426     C      0.007320000000     0.012030000000     0.150550000000    -0.101538   
C427     C      0.962110000000     0.986670000000     0.217740000000    -0.0315254  
C428     C      0.008050000000     0.010420000000     0.118290000000     0.0772241  
C429     C      0.979360000000     0.963260000000     0.119070000000     0.18342    
C430     C      0.961440000000     0.986880000000     0.250130000000    -0.0376198  
C431     C      0.988380000000     0.990230000000     0.301510000000     0.0460497  
C432     C      0.991040000000     0.989830000000     0.167450000000     0.067804   
H1       H      0.456320000000     0.522190000000     0.620090000000     0.0300387  
H2       H      0.515970000000     0.445980000000     0.876740000000     0.0281302  
H3       H      0.437780000000     0.492920000000     0.719860000000     0.038883   
H4       H      0.535700000000     0.470180000000     0.775480000000     0.037661   
H5       H      0.513620000000     0.441760000000     0.821130000000     0.056642   
H6       H      0.535160000000     0.469550000000     0.719080000000     0.0389701  
H7       H      0.464870000000     0.528310000000     0.816390000000     0.066052   
H8       H      0.455560000000     0.521190000000     0.676110000000     0.0528943  
H9       H      0.517210000000     0.442420000000     0.674810000000     0.0530629  
H10      H      0.438700000000     0.494310000000     0.776370000000     0.037845   
H11      H      0.518370000000     0.444790000000     0.618840000000     0.0302088  
H12      H      0.460460000000     0.558460000000     0.861070000000     0.090245   
H13      H      0.478410000000     0.548830000000     0.896280000000     0.111912   
H14      H      0.528990000000     0.521250000000     0.375960000000     0.0298911  
H15      H      0.454210000000     0.462010000000     0.119130000000     0.0246007  
H16      H      0.540680000000     0.482750000000     0.277820000000     0.0392881  
H17      H      0.443990000000     0.497930000000     0.217610000000     0.0367672  
H18      H      0.452040000000     0.463070000000     0.174850000000     0.0551842  
H19      H      0.442070000000     0.498760000000     0.274170000000     0.0393786  
H20      H      0.538530000000     0.512340000000     0.177270000000     0.0655579  
H21      H      0.529800000000     0.521870000000     0.319810000000     0.0534791  
H22      H      0.450480000000     0.461190000000     0.318540000000     0.0535154  
H23      H      0.542610000000     0.481030000000     0.221500000000     0.0361591  
H24      H      0.450230000000     0.460920000000     0.374750000000     0.0300607  
H25      H      0.567600000000     0.516070000000     0.131920000000     0.0901093  
H26      H      0.556440000000     0.498870000000     0.096750000000     0.111214   
H27      H      0.462440000000     0.610810000000     0.537610000000     0.0298082  
H28      H      0.530940000000     0.867820000000     0.523150000000     0.0284182  
H29      H      0.503530000000     0.710170000000     0.547600000000     0.039433   
H30      H      0.486010000000     0.765540000000     0.448320000000     0.0381287  
H31      H      0.534250000000     0.811960000000     0.523930000000     0.0569542  
H32      H      0.486810000000     0.708820000000     0.448970000000     0.0395862  
H33      H      0.449290000000     0.805960000000     0.472800000000     0.066411   
H34      H      0.463650000000     0.667110000000     0.537870000000     0.0536332  
H35      H      0.525860000000     0.665550000000     0.459790000000     0.0538098  
H36      H      0.502760000000     0.766920000000     0.546930000000     0.0375734  
H37      H      0.524470000000     0.609340000000     0.460210000000     0.0301045  
H38      H      0.419740000000     0.850800000000     0.465800000000     0.0905909  
H39      H      0.429580000000     0.886760000000     0.482200000000     0.111849   
H40      H      0.518410000000     0.110760000000     0.451310000000     0.0298573  
H41      H      0.450310000000     0.367660000000     0.465070000000     0.028542   
H42      H      0.477410000000     0.210050000000     0.441000000000     0.0395545  
H43      H      0.495020000000     0.265590000000     0.540160000000     0.0382073  
H44      H      0.446920000000     0.311850000000     0.464550000000     0.057099   
H45      H      0.493870000000     0.208840000000     0.539670000000     0.0395947  
H46      H      0.532060000000     0.305920000000     0.515380000000     0.0664481  
H47      H      0.517450000000     0.167030000000     0.451150000000     0.0537292  
H48      H      0.454370000000     0.165620000000     0.528520000000     0.0539149  
H49      H      0.478480000000     0.266790000000     0.441520000000     0.0376802  
H50      H      0.455480000000     0.109360000000     0.527980000000     0.0302052  
H51      H      0.561700000000     0.350760000000     0.522080000000     0.0903952  
H52      H      0.551850000000     0.386670000000     0.505580000000     0.111774   
H53      H      0.461940000000     0.610410000000     0.958980000000     0.0278787  
H54      H      0.520510000000     0.868870000000     0.028990000000     0.0287301  
H55      H      0.444280000000     0.710300000000     0.986530000000     0.038656   
H56      H      0.542270000000     0.767820000000     0.003630000000     0.0373977  
H57      H      0.520580000000     0.813190000000     0.032850000000     0.0567661  
H58      H      0.542660000000     0.711330000000     0.005160000000     0.0386845  
H59      H      0.467920000000     0.807040000000     0.948770000000     0.0656813  
H60      H      0.461680000000     0.666420000000     0.957980000000     0.0522612  
H61      H      0.526190000000     0.667410000000     0.034360000000     0.0529994  
H62      H      0.444200000000     0.766790000000     0.984270000000     0.037666   
H63      H      0.526740000000     0.611290000000     0.034050000000     0.0297871  
H64      H      0.460380000000     0.851810000000     0.919220000000     0.0883283  
H65      H      0.477240000000     0.887680000000     0.928580000000     0.105933   
H66      H      0.455090000000     0.110430000000     0.028310000000     0.0300951  
H67      H      0.516540000000     0.367410000000     0.954820000000     0.0269099  
H68      H      0.494880000000     0.208040000000     0.040200000000     0.0394825  
H69      H      0.480080000000     0.268830000000     0.943740000000     0.037187   
H70      H      0.514720000000     0.311670000000     0.951820000000     0.0557103  
H71      H      0.478820000000     0.212210000000     0.941590000000     0.039468   
H72      H      0.466300000000     0.308640000000     0.038780000000     0.065568   
H73      H      0.454880000000     0.166630000000     0.028970000000     0.0536069  
H74      H      0.516280000000     0.167280000000     0.950230000000     0.0535437  
H75      H      0.497150000000     0.264340000000     0.042360000000     0.0362676  
H76      H      0.516200000000     0.111000000000     0.950160000000     0.0298548  
H77      H      0.463680000000     0.353470000000     0.068680000000     0.0901545  
H78      H      0.481530000000     0.388470000000     0.058080000000     0.111505   
H79      H      0.532390000000     0.962710000000     0.613290000000     0.0299623  
H80      H      0.518870000000     0.028150000000     0.870170000000     0.0286902  
H81      H      0.541200000000     0.002790000000     0.712650000000     0.0405913  
H82      H      0.442610000000     0.983060000000     0.768370000000     0.0375889  
H83      H      0.518730000000     0.031810000000     0.814470000000     0.0567205  
H84      H      0.442960000000     0.984120000000     0.711710000000     0.0386071  
H85      H      0.466760000000     0.947250000000     0.808780000000     0.0656029  
H86      H      0.532810000000     0.963810000000     0.669510000000     0.0532646  
H87      H      0.452130000000     0.022650000000     0.668390000000     0.0530896  
H88      H      0.540880000000     0.001550000000     0.769300000000     0.0386435  
H89      H      0.452310000000     0.021260000000     0.612220000000     0.0281386  
H90      H      0.459820000000     0.917640000000     0.853540000000     0.0882588  
H91      H      0.476970000000     0.927070000000     0.889210000000     0.106087   
H92      H      0.459640000000     0.946410000000     0.369010000000     0.0299625  
H93      H      0.524840000000     0.956950000000     0.111770000000     0.028478   
H94      H      0.480190000000     0.034450000000     0.268890000000     0.0394501  
H95      H      0.496170000000     0.935470000000     0.212500000000     0.0374645  
H96      H      0.527360000000     0.957090000000     0.167540000000     0.0569955  
H97      H      0.497600000000     0.935870000000     0.269150000000     0.0395571  
H98      H      0.443080000000     0.009590000000     0.171500000000     0.0674597  
H99      H      0.459170000000     0.945620000000     0.312780000000     0.053486   
H100     H      0.519620000000     0.025130000000     0.311730000000     0.0538199  
H101     H      0.478850000000     0.034060000000     0.212200000000     0.0379474  
H102     H      0.519860000000     0.025280000000     0.367940000000     0.0301089  
H103     H      0.414420000000     0.016540000000     0.126060000000     0.090726   
H104     H      0.424610000000     0.999570000000     0.090490000000     0.110863   
H105     H      0.612600000000     0.524780000000     0.466980000000     0.0300163  
H106     H      0.869370000000     0.452480000000     0.527760000000     0.0286356  
H107     H      0.710070000000     0.538260000000     0.507180000000     0.0393482  
H108     H      0.769780000000     0.440680000000     0.495550000000     0.0370649  
H109     H      0.813720000000     0.450110000000     0.528320000000     0.0561598  
H110     H      0.713220000000     0.438910000000     0.495650000000     0.0390192  
H111     H      0.809620000000     0.534710000000     0.475890000000     0.0652152  
H112     H      0.668670000000     0.525520000000     0.467750000000     0.0534869  
H113     H      0.668320000000     0.449640000000     0.532750000000     0.0530202  
H114     H      0.766380000000     0.540100000000     0.508070000000     0.0362207  
H115     H      0.612050000000     0.449480000000     0.531660000000     0.0279926  
H116     H      0.854600000000     0.563830000000     0.469810000000     0.0882036  
H117     H      0.890110000000     0.553600000000     0.486770000000     0.106001   
H118     H      0.368210000000     0.449970000000     0.466850000000     0.0298976  
H119     H      0.112340000000     0.530890000000     0.520920000000     0.0284042  
H120     H      0.269460000000     0.440200000000     0.505800000000     0.0394488  
H121     H      0.212000000000     0.538160000000     0.487770000000     0.0371892  
H122     H      0.168010000000     0.532070000000     0.520710000000     0.0562663  
H123     H      0.268570000000     0.538730000000     0.488450000000     0.0396513  
H124     H      0.169710000000     0.443850000000     0.474450000000     0.0654417  
H125     H      0.312090000000     0.450100000000     0.466390000000     0.0535689  
H126     H      0.312260000000     0.529090000000     0.527550000000     0.0537156  
H127     H      0.213120000000     0.439620000000     0.506250000000     0.0364198  
H128     H      0.368510000000     0.528330000000     0.527790000000     0.0300302  
H129     H      0.124110000000     0.415310000000     0.471110000000     0.0902342  
H130     H      0.089030000000     0.427290000000     0.487760000000     0.111645   
H131     H      0.870210000000     0.464690000000     0.033670000000     0.0299968  
H132     H      0.613920000000     0.530090000000     0.022890000000     0.0274811  
H133     H      0.771450000000     0.505000000000     0.043060000000     0.0392547  
H134     H      0.714650000000     0.485110000000     0.945090000000     0.0379666  
H135     H      0.669510000000     0.534210000000     0.021160000000     0.0564449  
H136     H      0.771380000000     0.486520000000     0.944750000000     0.0394155  
H137     H      0.674600000000     0.448720000000     0.970690000000     0.0661611  
H138     H      0.814070000000     0.464970000000     0.033520000000     0.0535482  
H139     H      0.815070000000     0.526010000000     0.954470000000     0.0536896  
H140     H      0.714860000000     0.503610000000     0.043400000000     0.0369856  
H141     H      0.871340000000     0.525580000000     0.955310000000     0.0298501  
H142     H      0.630000000000     0.418550000000     0.965570000000     0.0904005  
H143     H      0.594720000000     0.427800000000     0.983550000000     0.111677   
H144     H      0.115310000000     0.533910000000     0.028510000000     0.0299393  
H145     H      0.371650000000     0.518610000000     0.960700000000     0.0289056  
H146     H      0.214210000000     0.444370000000     0.008950000000     0.0395016  
H147     H      0.271820000000     0.542230000000     0.990640000000     0.0376714  
H148     H      0.315900000000     0.518890000000     0.958850000000     0.0570476  
H149     H      0.215170000000     0.542640000000     0.989890000000     0.0393949  
H150     H      0.312470000000     0.468930000000     0.044700000000     0.0662547  
H151     H      0.171550000000     0.533820000000     0.029090000000     0.0536835  
H152     H      0.171450000000     0.453960000000     0.969060000000     0.0538397  
H153     H      0.270900000000     0.443970000000     0.009710000000     0.0383184  
H154     H      0.115290000000     0.454740000000     0.968640000000     0.0301958  
H155     H      0.358090000000     0.462440000000     0.073080000000     0.0900746  
H156     H      0.393610000000     0.478980000000     0.062200000000     0.111268   
H157     H      0.033000000000     0.457410000000     0.876120000000     0.029766   
H158     H      0.021260000000     0.526600000000     0.618990000000     0.0287832  
H159     H      0.946280000000     0.477150000000     0.775160000000     0.0394359  
H160     H      0.045020000000     0.494560000000     0.718950000000     0.0377559  
H161     H      0.021690000000     0.527560000000     0.674850000000     0.0570969  
H162     H      0.044640000000     0.495080000000     0.775690000000     0.0396904  
H163     H      0.972560000000     0.441170000000     0.677010000000     0.0662181  
H164     H      0.033940000000     0.455710000000     0.819810000000     0.0536861  
H165     H      0.956180000000     0.518290000000     0.817250000000     0.0537651  
H166     H      0.946690000000     0.476480000000     0.718440000000     0.0380886  
H167     H      0.955970000000     0.519890000000     0.873370000000     0.0301077  
H168     H      0.966530000000     0.413320000000     0.630930000000     0.0901092  
H169     H      0.982860000000     0.425030000000     0.595550000000     0.111298   
H170     H      0.951530000000     0.525250000000     0.375320000000     0.0301307  
H171     H      0.963110000000     0.459400000000     0.118420000000     0.0263728  
H172     H      0.040040000000     0.505520000000     0.275270000000     0.0395102  
H173     H      0.941370000000     0.489320000000     0.218590000000     0.0373475  
H174     H      0.963490000000     0.457360000000     0.174170000000     0.0561863  
H175     H      0.941560000000     0.488160000000     0.275240000000     0.0393968  
H176     H      0.015240000000     0.542180000000     0.177250000000     0.0661381  
H177     H      0.951390000000     0.526700000000     0.319080000000     0.0534506  
H178     H      0.030300000000     0.465520000000     0.317890000000     0.0537404  
H179     H      0.039840000000     0.506670000000     0.218540000000     0.0379248  
H180     H      0.029770000000     0.464260000000     0.374090000000     0.0302917  
H181     H      0.021830000000     0.570550000000     0.131590000000     0.0904429  
H182     H      0.004670000000     0.560120000000     0.096210000000     0.112035   
H183     H      0.959680000000     0.869430000000     0.525880000000     0.0277234  
H184     H      0.031540000000     0.612340000000     0.525860000000     0.0281673  
H185     H      0.986280000000     0.766940000000     0.442770000000     0.0394767  
H186     H      0.003440000000     0.715140000000     0.544010000000     0.0369615  
H187     H      0.035130000000     0.668260000000     0.523420000000     0.0567097  
H188     H      0.003110000000     0.771870000000     0.541240000000     0.040435   
H189     H      0.949500000000     0.671740000000     0.473220000000     0.0660667  
H190     H      0.961850000000     0.813250000000     0.528920000000     0.0526056  
H191     H      0.024200000000     0.812000000000     0.450970000000     0.0536442  
H192     H      0.986470000000     0.710260000000     0.445580000000     0.0378139  
H193     H      0.021910000000     0.868180000000     0.448650000000     0.0301271  
H194     H      0.919470000000     0.626820000000     0.469660000000     0.0883834  
H195     H      0.929520000000     0.591960000000     0.488220000000     0.105474   
H196     H      0.016950000000     0.369760000000     0.452780000000     0.0288189  
H197     H      0.951810000000     0.112030000000     0.455940000000     0.0265021  
H198     H      0.993070000000     0.268220000000     0.537580000000     0.0385912  
H199     H      0.978600000000     0.214010000000     0.437190000000     0.0374688  
H200     H      0.947850000000     0.167740000000     0.457770000000     0.056085   
H201     H      0.976790000000     0.270690000000     0.438910000000     0.039231   
H202     H      0.032140000000     0.172310000000     0.510150000000     0.0660254  
H203     H      0.016070000000     0.313570000000     0.450430000000     0.0531578  
H204     H      0.953670000000     0.311810000000     0.528340000000     0.0527767  
H205     H      0.994920000000     0.211510000000     0.535850000000     0.0374876  
H206     H      0.954710000000     0.368090000000     0.530000000000     0.0278737  
H207     H      0.062050000000     0.127460000000     0.515560000000     0.0903651  
H208     H      0.052820000000     0.092170000000     0.497450000000     0.112009   
H209     H      0.611120000000     0.027070000000     0.456180000000     0.0302049  
H210     H      0.868790000000     0.952670000000     0.512790000000     0.028554   
H211     H      0.710000000000     0.040020000000     0.493570000000     0.0394444  
H212     H      0.769910000000     0.942980000000     0.478970000000     0.0371152  
H213     H      0.813150000000     0.950810000000     0.512390000000     0.0560054  
H214     H      0.713400000000     0.941090000000     0.479020000000     0.039439   
H215     H      0.810590000000     0.037890000000     0.464030000000     0.0653268  
H216     H      0.667270000000     0.028220000000     0.454990000000     0.0535594  
H217     H      0.669630000000     0.950330000000     0.517510000000     0.0533643  
H218     H      0.766330000000     0.041950000000     0.494620000000     0.0363217  
H219     H      0.613430000000     0.949800000000     0.518430000000     0.029871   
H220     H      0.855970000000     0.066860000000     0.460220000000     0.0901418  
H221     H      0.891210000000     0.055420000000     0.476980000000     0.111365   
H222     H      0.113200000000     0.022680000000     0.520040000000     0.0284204  
H223     H      0.370220000000     0.959720000000     0.448480000000     0.0274196  
H224     H      0.211670000000     0.940550000000     0.470670000000     0.0386714  
H225     H      0.269750000000     0.036820000000     0.494730000000     0.037856   
H226     H      0.314600000000     0.961400000000     0.443780000000     0.0564356  
H227     H      0.213350000000     0.038450000000     0.492290000000     0.0383267  
H228     H      0.308520000000     0.009750000000     0.530440000000     0.0671777  
H229     H      0.169140000000     0.022150000000     0.520020000000     0.0522329  
H230     H      0.167800000000     0.958230000000     0.443060000000     0.0526848  
H231     H      0.268070000000     0.939360000000     0.472170000000     0.0369851  
H232     H      0.111790000000     0.958330000000     0.444540000000     0.029815   
H233     H      0.352860000000     0.014100000000     0.561170000000     0.0904012  
H234     H      0.388380000000     0.996730000000     0.551530000000     0.109962   
H235     H      0.963500000000     0.615110000000     0.951510000000     0.0300659  
H236     H      0.027090000000     0.873670000000     0.952700000000     0.0284659  
H237     H      0.985710000000     0.718070000000     0.035350000000     0.0387674  
H238     H      0.000750000000     0.771040000000     0.934390000000     0.0381877  
H239     H      0.031060000000     0.817870000000     0.954450000000     0.0567019  
H240     H      0.002630000000     0.714380000000     0.936830000000     0.0403193  
H241     H      0.946680000000     0.813270000000     0.006700000000     0.066061   
H242     H      0.963750000000     0.671300000000     0.948500000000     0.0534002  
H243     H      0.025060000000     0.674690000000     0.027230000000     0.0530361  
H244     H      0.983840000000     0.774710000000     0.032910000000     0.0373006  
H245     H      0.024600000000     0.618470000000     0.029580000000     0.0280173  
H246     H      0.916720000000     0.858130000000     0.011970000000     0.0896762  
H247     H      0.926180000000     0.893480000000     0.994040000000     0.110744   
H248     H      0.025400000000     0.114830000000     0.023160000000     0.0300571  
H249     H      0.020370000000     0.372540000000     0.961740000000     0.0291005  
H250     H      0.037440000000     0.215100000000     0.988490000000     0.0396081  
H251     H      0.940270000000     0.273810000000     0.006630000000     0.0379382  
H252     H      0.018370000000     0.316880000000     0.959030000000     0.0571937  
H253     H      0.938740000000     0.217050000000     0.004340000000     0.0395577  
H254     H      0.965450000000     0.314320000000     0.043070000000     0.0662515  
H255     H      0.026050000000     0.170980000000     0.026110000000     0.0536884  
H256     H      0.948280000000     0.174670000000     0.963650000000     0.0535972  
H257     H      0.038960000000     0.271710000000     0.990770000000     0.0375084  
H258     H      0.948300000000     0.118410000000     0.960870000000     0.0302342  
H259     H      0.959750000000     0.359880000000     0.071850000000     0.0901948  
H260     H      0.978070000000     0.394890000000     0.062090000000     0.111426   
H261     H      0.610100000000     0.026690000000     0.958160000000     0.0301336  
H262     H      0.868360000000     0.968460000000     0.028610000000     0.0276761  
H263     H      0.710040000000     0.045940000000     0.986360000000     0.0386944  
H264     H      0.766570000000     0.947920000000     0.006720000000     0.036951   
H265     H      0.812880000000     0.970130000000     0.034090000000     0.056114   
H266     H      0.710220000000     0.948240000000     0.008840000000     0.0386932  
H267     H      0.805590000000     0.019270000000     0.947970000000     0.0658563  
H268     H      0.666020000000     0.028280000000     0.958800000000     0.0527629  
H269     H      0.666210000000     0.965570000000     0.036740000000     0.052699   
H270     H      0.766460000000     0.045240000000     0.983430000000     0.0377796  
H271     H      0.610220000000     0.963590000000     0.034710000000     0.0297184  
H272     H      0.849530000000     0.024260000000     0.916810000000     0.090239   
H273     H      0.885180000000     0.006770000000     0.925670000000     0.111392   
H274     H      0.366490000000     0.955740000000     0.951700000000     0.0299877  
H275     H      0.109640000000     0.020040000000     0.023070000000     0.028817   
H276     H      0.265290000000     0.940360000000     0.976910000000     0.0385072  
H277     H      0.210730000000     0.039570000000     0.996880000000     0.0374733  
H278     H      0.165260000000     0.017980000000     0.026260000000     0.056692   
H279     H      0.267080000000     0.038290000000     0.998340000000     0.0387433  
H280     H      0.168650000000     0.968310000000     0.940200000000     0.0656429  
H281     H      0.310490000000     0.956360000000     0.950260000000     0.0524985  
H282     H      0.310000000000     0.020420000000     0.027110000000     0.0523492  
H283     H      0.208860000000     0.942050000000     0.974560000000     0.0376682  
H284     H      0.365980000000     0.020200000000     0.027110000000     0.0280651  
H285     H      0.123400000000     0.963520000000     0.910910000000     0.0899948  
H286     H      0.088260000000     0.981290000000     0.921150000000     0.111561   
H287     H      0.026040000000     0.969070000000     0.861670000000     0.0278326  
H288     H      0.018910000000     0.033470000000     0.604880000000     0.0288193  
H289     H      0.938860000000     0.994500000000     0.762800000000     0.0386308  
H290     H      0.038230000000     0.009190000000     0.706910000000     0.037931   
H291     H      0.016990000000     0.038960000000     0.660410000000     0.0563219  
H292     H      0.037410000000     0.011300000000     0.763520000000     0.0391589  
H293     H      0.965240000000     0.954370000000     0.667280000000     0.065575   
H294     H      0.026650000000     0.970770000000     0.805590000000     0.0529737  
H295     H      0.949220000000     0.033780000000     0.807080000000     0.0532933  
H296     H      0.939690000000     0.992310000000     0.706070000000     0.0382098  
H297     H      0.949320000000     0.031950000000     0.863430000000     0.0280397  
H298     H      0.960030000000     0.923170000000     0.623330000000     0.0900004  
H299     H      0.978190000000     0.931470000000     0.587870000000     0.111535   
H300     H      0.026330000000     0.957950000000     0.362090000000     0.0299387  
H301     H      0.019860000000     0.029090000000     0.106320000000     0.0286285  
H302     H      0.939560000000     0.983320000000     0.261870000000     0.0392654  
H303     H      0.039470000000     0.998570000000     0.207110000000     0.0373437  
H304     H      0.018830000000     0.031090000000     0.162160000000     0.0569657  
H305     H      0.038350000000     0.998610000000     0.263770000000     0.0394117  
H306     H      0.965540000000     0.947200000000     0.164440000000     0.0659461  
H307     H      0.026940000000     0.958500000000     0.305890000000     0.0534113  
H308     H      0.949590000000     0.021640000000     0.306190000000     0.0537519  
H309     H      0.940690000000     0.983260000000     0.205140000000     0.0379143  
H310     H      0.949660000000     0.020900000000     0.362460000000     0.0303278  
H311     H      0.959280000000     0.918900000000     0.118670000000     0.090305   
H312     H      0.976990000000     0.929270000000     0.083500000000     0.112238   
N1       N      0.491930000000     0.489640000000     0.879480000000    -0.202904   
N2       N      0.487520000000     0.483700000000     0.615240000000    -0.184314   
N3       N      0.471060000000     0.541350000000     0.874560000000    -0.21823    
N4       N      0.497830000000     0.485870000000     0.115410000000    -0.204181   
N5       N      0.489680000000     0.490910000000     0.379570000000    -0.184733   
N6       N      0.549890000000     0.505950000000     0.118870000000    -0.218129   
N7       N      0.488180000000     0.869870000000     0.497560000000    -0.203227   
N8       N      0.493290000000     0.605860000000     0.498870000000    -0.184574   
N9       N      0.436840000000     0.864580000000     0.476020000000    -0.218085   
N10      N      0.493170000000     0.369790000000     0.490500000000    -0.203197   
N11      N      0.487080000000     0.105850000000     0.489670000000    -0.184549   
N12      N      0.544580000000     0.364530000000     0.511870000000    -0.218056   
N13      N      0.494100000000     0.870950000000     0.986700000000    -0.20325    
N14      N      0.494320000000     0.606640000000     0.996590000000    -0.18517    
N15      N      0.471130000000     0.865570000000     0.936010000000    -0.217776   
N16      N      0.493350000000     0.370780000000     0.998820000000    -0.203656   
N17      N      0.485820000000     0.106500000000     0.989340000000    -0.184582   
N18      N      0.473860000000     0.366680000000     0.051100000000    -0.218029   
N19      N      0.492950000000     0.985540000000     0.872480000000    -0.203198   
N20      N      0.492280000000     0.991800000000     0.608540000000    -0.185198   
N21      N      0.470520000000     0.934530000000     0.867230000000    -0.217639   
N22      N      0.482550000000     0.983230000000     0.108600000000    -0.202808   
N23      N      0.489750000000     0.985900000000     0.372700000000    -0.184752   
N24      N      0.431560000000     0.005830000000     0.112720000000    -0.21695    
N25      N      0.872360000000     0.495290000000     0.502270000000    -0.202868   
N26      N      0.608110000000     0.487150000000     0.499330000000    -0.184856   
N27      N      0.867990000000     0.546590000000     0.480310000000    -0.217661   
N28      N      0.108150000000     0.486370000000     0.498760000000    -0.202876   
N29      N      0.372580000000     0.489100000000     0.497380000000    -0.184362   
N30      N      0.111180000000     0.433500000000     0.480530000000    -0.218017   
N31      N      0.611280000000     0.486880000000     0.997970000000    -0.203371   
N32      N      0.874990000000     0.495150000000     0.994550000000    -0.184549   
N33      N      0.616420000000     0.435470000000     0.976360000000    -0.218153   
N34      N      0.375130000000     0.493680000000     0.003820000000    -0.202604   
N35      N      0.111080000000     0.494370000000     0.998540000000    -0.184432   
N36      N      0.371340000000     0.472590000000     0.055530000000    -0.218009   
N37      N      0.996690000000     0.483330000000     0.614940000000    -0.203231   
N38      N      0.994490000000     0.488810000000     0.878970000000    -0.184701   
N39      N      0.976400000000     0.431240000000     0.617940000000    -0.218006   
N40      N      0.988860000000     0.502020000000     0.114750000000    -0.203176   
N41      N      0.990590000000     0.494610000000     0.378930000000    -0.184503   
N42      N      0.011140000000     0.553260000000     0.118410000000    -0.218131   
N43      N      0.988440000000     0.609120000000     0.501030000000    -0.202703   
N44      N      0.990680000000     0.873040000000     0.487110000000    -0.184355   
N45      N      0.936720000000     0.613590000000     0.480340000000    -0.217329   
N46      N      0.994300000000     0.109170000000     0.481930000000    -0.203226   
N47      N      0.985980000000     0.373150000000     0.491610000000    -0.18503    
N48      N      0.045250000000     0.113990000000     0.504470000000    -0.218137   
N49      N      0.872560000000     0.996580000000     0.489380000000    -0.202955   
N50      N      0.608040000000     0.988460000000     0.487490000000    -0.184434   
N51      N      0.869050000000     0.048970000000     0.470000000000    -0.218002   
N52      N      0.372240000000     0.983800000000     0.492150000000    -0.203245   
N53      N      0.108270000000     0.990470000000     0.482390000000    -0.185149   
N54      N      0.366610000000     0.003920000000     0.544030000000    -0.216864   
N55      N      0.984670000000     0.876410000000     0.978770000000    -0.203431   
N56      N      0.993980000000     0.612560000000     0.990770000000    -0.18488    
N57      N      0.933620000000     0.871600000000     0.001020000000    -0.217869   
N58      N      0.994170000000     0.376560000000     0.004040000000    -0.202541   
N59      N      0.986910000000     0.112390000000     0.991690000000    -0.184445   
N60      N      0.971070000000     0.372950000000     0.054880000000    -0.218064   
N61      N      0.869840000000     0.992870000000     0.985090000000    -0.203763   
N62      N      0.605950000000     0.994820000000     0.996190000000    -0.184895   
N63      N      0.863520000000     0.013800000000     0.933600000000    -0.218149   
N64      N      0.106150000000     0.995410000000     0.979800000000    -0.203336   
N65      N      0.370460000000     0.988020000000     0.989380000000    -0.184927   
N66      N      0.110190000000     0.974150000000     0.928200000000    -0.218143   
N67      N      0.993280000000     0.990650000000     0.603170000000    -0.203289   
N68      N      0.987610000000     0.000340000000     0.866780000000    -0.18376    
N69      N      0.971050000000     0.939660000000     0.609400000000    -0.217891   
N70      N      0.993290000000     0.987030000000     0.102360000000    -0.203325   
N71      N      0.988060000000     0.989480000000     0.366510000000    -0.184875   
N72      N      0.970340000000     0.936100000000     0.105670000000    -0.218047   
O1       O      0.988020000000     0.994580000000     0.984480000000    -0.368712   
O2       O      0.971670000000     0.973660000000     0.055490000000    -0.307016   
O3       O      0.059990000000     0.012910000000     0.999670000000    -0.30444    
O4       O      0.003840000000     0.923340000000     0.962220000000    -0.304114   
O5       O      0.009900000000     0.007600000000     0.056070000000    -0.302587   
O6       O      0.969620000000     0.922860000000     0.000150000000    -0.309976   
O7       O      0.058940000000     0.975780000000     0.964550000000    -0.307045   
O8       O      0.969080000000     0.016310000000     0.914050000000    -0.303246   
O9       O      0.005960000000     0.064930000000     0.006230000000    -0.301721   
O10      O      0.005370000000     0.980080000000     0.912500000000    -0.305563   
O11      O      0.968760000000     0.066870000000     0.970980000000    -0.301755   
O12      O      0.916210000000     0.012770000000     0.967800000000    -0.306143   
O13      O      0.916910000000     0.975650000000     0.002930000000    -0.307636   
O14      O      0.990450000000     0.991020000000     0.484730000000    -0.368015   
O15      O      0.970320000000     0.007720000000     0.413180000000    -0.301474   
O16      O      0.061370000000     0.972560000000     0.465020000000    -0.303513   
O17      O      0.009710000000     0.062290000000     0.502340000000    -0.306474   
O18      O      0.007190000000     0.972130000000     0.412950000000    -0.302637   
O19      O      0.975120000000     0.062530000000     0.464720000000    -0.306722   
O20      O      0.062170000000     0.008410000000     0.501670000000    -0.305208   
O21      O      0.973340000000     0.973630000000     0.556680000000    -0.306529   
O22      O      0.007700000000     0.919320000000     0.467230000000    -0.3021     
O23      O      0.010460000000     0.008690000000     0.556090000000    -0.303241   
O24      O      0.971960000000     0.919910000000     0.504040000000    -0.304497   
O25      O      0.918880000000     0.975370000000     0.504960000000    -0.303688   
O26      O      0.919410000000     0.011660000000     0.468900000000    -0.305903   
O27      O      0.993050000000     0.494690000000     0.996800000000    -0.367464   
O28      O      0.012490000000     0.472870000000     0.926450000000    -0.301554   
O29      O      0.921880000000     0.512340000000     0.976380000000    -0.303287   
O30      O      0.974590000000     0.424170000000     0.018550000000    -0.306149   
O31      O      0.975860000000     0.508700000000     0.924480000000    -0.304048   
O32      O      0.011770000000     0.422470000000     0.983540000000    -0.304478   
O33      O      0.921150000000     0.477650000000     0.014110000000    -0.303133   
O34      O      0.009830000000     0.516170000000     0.067720000000    -0.306205   
O35      O      0.976140000000     0.565240000000     0.974310000000    -0.302949   
O36      O      0.972470000000     0.481310000000     0.068510000000    -0.307294   
O37      O      0.010860000000     0.566850000000     0.012010000000    -0.304458   
O38      O      0.064440000000     0.513780000000     0.015110000000    -0.302205   
O39      O      0.064670000000     0.475500000000     0.980990000000    -0.303572   
O40      O      0.990300000000     0.490930000000     0.497140000000    -0.367812   
O41      O      0.971280000000     0.510370000000     0.425900000000    -0.302253   
O42      O      0.060930000000     0.470880000000     0.479490000000    -0.307739   
O43      O      0.007940000000     0.562320000000     0.517850000000    -0.302358   
O44      O      0.009100000000     0.475800000000     0.425030000000    -0.302522   
O45      O      0.972560000000     0.562360000000     0.480890000000    -0.307853   
O46      O      0.062150000000     0.507890000000     0.514780000000    -0.304371   
O47      O      0.975100000000     0.469360000000     0.568220000000    -0.30776    
O48      O      0.005420000000     0.419910000000     0.475430000000    -0.305028   
O49      O      0.011170000000     0.505520000000     0.568710000000    -0.304039   
O50      O      0.969990000000     0.419370000000     0.512490000000    -0.305766   
O51      O      0.919030000000     0.475320000000     0.518310000000    -0.304877   
O52      O      0.918910000000     0.510040000000     0.480780000000    -0.308396   
O53      O      0.488360000000     0.988710000000     0.990610000000    -0.369021   
O54      O      0.417170000000     0.970040000000     0.971490000000    -0.302509   
O55      O      0.468610000000     0.005290000000     0.062060000000    -0.305848   
O56      O      0.510280000000     0.917980000000     0.005610000000    -0.305712   
O57      O      0.416820000000     0.006090000000     0.007980000000    -0.304205   
O58      O      0.471830000000     0.917180000000     0.971940000000    -0.308239   
O59      O      0.502790000000     0.967300000000     0.062010000000    -0.305247   
O60      O      0.559490000000     0.009500000000     0.975090000000    -0.30266    
O61      O      0.469850000000     0.059800000000     0.009070000000    -0.302917   
O62      O      0.559650000000     0.974540000000     0.012600000000    -0.302942   
O63      O      0.503940000000     0.060120000000     0.970750000000    -0.303326   
O64      O      0.509220000000     0.004730000000     0.919390000000    -0.304646   
O65      O      0.471610000000     0.970150000000     0.918940000000    -0.308194   
O66      O      0.490250000000     0.987830000000     0.490690000000    -0.368275   
O67      O      0.418560000000     0.004120000000     0.508930000000    -0.306513   
O68      O      0.472850000000     0.967310000000     0.419550000000    -0.302829   
O69      O      0.506160000000     0.059670000000     0.471510000000    -0.303446   
O70      O      0.419270000000     0.967440000000     0.473320000000    -0.307703   
O71      O      0.470400000000     0.058950000000     0.508210000000    -0.303632   
O72      O      0.506840000000     0.005700000000     0.418930000000    -0.3022     
O73      O      0.562160000000     0.969570000000     0.506510000000    -0.302573   
O74      O      0.472980000000     0.915750000000     0.475080000000    -0.307798   
O75      O      0.560920000000     0.007160000000     0.471570000000    -0.30139    
O76      O      0.507460000000     0.917160000000     0.512760000000    -0.305153   
O77      O      0.511180000000     0.973590000000     0.562310000000    -0.303297   
O78      O      0.471910000000     0.006520000000     0.561790000000    -0.305759   
O79      O      0.493140000000     0.488790000000     0.997560000000    -0.368565   
O80      O      0.421510000000     0.509060000000     0.982690000000    -0.305436   
O81      O      0.474250000000     0.417790000000     0.014970000000    -0.307726   
O82      O      0.510580000000     0.471340000000     0.925860000000    -0.304767   
O83      O      0.421880000000     0.472450000000     0.018350000000    -0.307069   
O84      O      0.473040000000     0.506100000000     0.926570000000    -0.307204   
O85      O      0.511160000000     0.417180000000     0.979590000000    -0.307579   
O86      O      0.564770000000     0.505890000000     0.015500000000    -0.308251   
O87      O      0.477640000000     0.469060000000     0.069120000000    -0.310921   
O88      O      0.564300000000     0.470380000000     0.978770000000    -0.30733    
O89      O      0.512540000000     0.506400000000     0.068530000000    -0.308848   
O90      O      0.511950000000     0.560220000000     0.015580000000    -0.303742   
O91      O      0.476250000000     0.559980000000     0.978810000000    -0.306987   
O92      O      0.490320000000     0.487820000000     0.497450000000    -0.367737   
O93      O      0.508540000000     0.415790000000     0.512680000000    -0.307734   
O94      O      0.418920000000     0.469630000000     0.480300000000    -0.303632   
O95      O      0.471670000000     0.504560000000     0.569000000000    -0.302822   
O96      O      0.473510000000     0.416990000000     0.475520000000    -0.305277   
O97      O      0.506120000000     0.466550000000     0.568520000000    -0.30288    
O98      O      0.419250000000     0.507710000000     0.514720000000    -0.302405   
O99      O      0.509480000000     0.559000000000     0.479860000000    -0.304265   
O100     O      0.470570000000     0.472940000000     0.425750000000    -0.303926   
O101     O      0.474380000000     0.559640000000     0.517190000000    -0.303079   
O102     O      0.509440000000     0.506330000000     0.426390000000    -0.304395   
O103     O      0.561920000000     0.505340000000     0.480590000000    -0.304757   
O104     O      0.561300000000     0.468840000000     0.516610000000    -0.305616   
Zn1      Zn     0.962310000000     0.967790000000     0.010210000000     0.45007    
Zn2      Zn     0.015140000000     0.019310000000     0.010960000000     0.452799   
Zn3      Zn     0.013340000000     0.968950000000     0.957030000000     0.449856   
Zn4      Zn     0.961330000000     0.021930000000     0.960000000000     0.449411   
Zn5      Zn     0.964530000000     0.017350000000     0.458580000000     0.450962   
Zn6      Zn     0.015870000000     0.964500000000     0.458210000000     0.451628   
Zn7      Zn     0.017190000000     0.016880000000     0.510590000000     0.451661   
Zn8      Zn     0.964210000000     0.965580000000     0.511560000000     0.44844    
Zn9      Zn     0.019590000000     0.467190000000     0.972490000000     0.452071   
Zn10     Zn     0.967450000000     0.519570000000     0.968920000000     0.452077   
Zn11     Zn     0.966160000000     0.470010000000     0.023620000000     0.450248   
Zn12     Zn     0.018900000000     0.521940000000     0.022210000000     0.450407   
Zn13     Zn     0.964090000000     0.517400000000     0.471610000000     0.449601   
Zn14     Zn     0.015700000000     0.465220000000     0.470000000000     0.452068   
Zn15     Zn     0.017000000000     0.516450000000     0.523580000000     0.449648   
Zn16     Zn     0.964230000000     0.464560000000     0.523170000000     0.450292   
Zn17     Zn     0.462680000000     0.962410000000     0.964180000000     0.44875    
Zn18     Zn     0.461930000000     0.014410000000     0.016760000000     0.452386   
Zn19     Zn     0.514580000000     0.962990000000     0.017000000000     0.452263   
Zn20     Zn     0.514380000000     0.015000000000     0.964610000000     0.453574   
Zn21     Zn     0.463520000000     0.013570000000     0.516520000000     0.453152   
Zn22     Zn     0.464780000000     0.960510000000     0.465100000000     0.45047    
Zn23     Zn     0.515330000000     0.014430000000     0.464020000000     0.452887   
Zn24     Zn     0.517160000000     0.962760000000     0.517180000000     0.450618   
Zn25     Zn     0.466610000000     0.514890000000     0.971980000000     0.451587   
Zn26     Zn     0.467220000000     0.462850000000     0.023980000000     0.450567   
Zn27     Zn     0.518900000000     0.462640000000     0.971020000000     0.449579   
Zn28     Zn     0.519650000000     0.514810000000     0.023380000000     0.45179    
Zn29     Zn     0.515730000000     0.460620000000     0.523220000000     0.451362   
Zn30     Zn     0.463970000000     0.462520000000     0.470750000000     0.452893   
Zn31     Zn     0.464690000000     0.514300000000     0.523810000000     0.45154    
Zn32     Zn     0.517010000000     0.513730000000     0.471780000000     0.454039   


