data_structure

_audit_creation_method RASPA-1.0
_audit_creation_date 2023-5-19
_audit_author_name 'Poobodin Mano'

_cell_length_a    43.2538
_cell_length_b    43.262
_cell_length_c    43.2566
_cell_angle_alpha 90
_cell_angle_beta  90
_cell_angle_gamma 90
_cell_volume      80943.7

_symmetry_cell_setting          triclinic
_symmetry_space_group_name_Hall 'P 1'
_symmetry_space_group_name_H-M  'P 1'
_symmetry_Int_Tables_number     1

_symmetry_equiv_pos_as_xyz 'x,y,z'

loop_
_atom_site_label
_atom_site_type_symbol
_atom_site_fract_x
_atom_site_fract_y
_atom_site_fract_z
_atom_site_charge
C1       C      0.912910000000     0.991260000000     0.991610000000     0.367439   
C2       C      0.996790000000     0.991460000000     0.080580000000     0.368108   
C3       C      0.997710000000     0.904840000000     0.994740000000     0.367126   
C4       C      0.085270000000     0.988510000000     0.996810000000     0.367738   
C5       C      0.000200000000     0.076680000000     0.995220000000     0.368621   
C6       C      0.001860000000     0.991910000000     0.908540000000     0.368622   
C7       C      0.994120000000     0.085800000000     0.497280000000     0.36826    
C8       C      0.993770000000     0.002350000000     0.408500000000     0.367714   
C9       C      0.080290000000     0.000390000000     0.494710000000     0.368626   
C10      C      0.995090000000     0.913710000000     0.491530000000     0.367261   
C11      C      0.908170000000     0.999510000000     0.494220000000     0.368304   
C12      C      0.994220000000     0.996690000000     0.580550000000     0.367404   
C13      C      0.003490000000     0.404670000000     0.995190000000     0.368084   
C14      C      0.998640000000     0.491650000000     0.081540000000     0.367721   
C15      C      0.084390000000     0.494580000000     0.995660000000     0.367695   
C16      C      0.994420000000     0.576780000000     0.994130000000     0.36704    
C17      C      0.912440000000     0.485690000000     0.997070000000     0.367358   
C18      C      0.997190000000     0.490690000000     0.909650000000     0.367971   
C19      C      0.999520000000     0.413710000000     0.495040000000     0.367273   
C20      C      0.993340000000     0.500950000000     0.409480000000     0.367173   
C21      C      0.910190000000     0.496180000000     0.498310000000     0.368105   
C22      C      0.993720000000     0.585730000000     0.496020000000     0.367838   
C23      C      0.082080000000     0.501690000000     0.493550000000     0.368798   
C24      C      0.998330000000     0.500240000000     0.581780000000     0.367808   
C25      C      0.413210000000     0.997010000000     0.996470000000     0.36776    
C26      C      0.498110000000     0.995350000000     0.084220000000     0.368655   
C27      C      0.500810000000     0.913130000000     0.995730000000     0.36833    
C28      C      0.585080000000     0.001140000000     0.998980000000     0.367949   
C29      C      0.496220000000     0.085080000000     0.001540000000     0.368389   
C30      C      0.501300000000     0.001640000000     0.911980000000     0.367726   
C31      C      0.408370000000     0.001330000000     0.499920000000     0.368182   
C32      C      0.492980000000     0.997520000000     0.412070000000     0.368861   
C33      C      0.497750000000     0.083620000000     0.497150000000     0.368437   
C34      C      0.580290000000     0.994150000000     0.497080000000     0.36865    
C35      C      0.490600000000     0.911410000000     0.497480000000     0.367857   
C36      C      0.495820000000     0.997440000000     0.584010000000     0.368069   
C37      C      0.412420000000     0.502090000000     0.997870000000     0.367747   
C38      C      0.495920000000     0.413210000000     0.998330000000     0.36745    
C39      C      0.497870000000     0.500860000000     0.913170000000     0.368952   
C40      C      0.584510000000     0.495630000000     0.998820000000     0.367925   
C41      C      0.497660000000     0.498150000000     0.085170000000     0.368357   
C42      C      0.502460000000     0.585170000000     0.001150000000     0.369014   
C43      C      0.495010000000     0.411510000000     0.500350000000     0.368648   
C44      C      0.409970000000     0.498870000000     0.502070000000     0.368682   
C45      C      0.498660000000     0.498130000000     0.585310000000     0.369308   
C46      C      0.496900000000     0.583430000000     0.498470000000     0.368488   
C47      C      0.493250000000     0.496170000000     0.413280000000     0.368133   
C48      C      0.582050000000     0.496750000000     0.496970000000     0.368101   
C49      C      0.479110000000     0.519820000000     0.831280000000    -0.100339   
C50      C      0.519270000000     0.479230000000     0.632820000000     0.0709901  
C51      C      0.480580000000     0.518060000000     0.633360000000     0.0712845  
C52      C      0.520380000000     0.479310000000     0.665090000000    -0.0901381  
C53      C      0.504120000000     0.471920000000     0.733120000000    -0.0350222  
C54      C      0.503930000000     0.472300000000     0.765430000000    -0.0338452  
C55      C      0.501890000000     0.499620000000     0.716250000000    -0.00515963 
C56      C      0.481120000000     0.518730000000     0.665620000000    -0.090131   
C57      C      0.501470000000     0.500380000000     0.781590000000    -0.00744887 
C58      C      0.519500000000     0.481960000000     0.833460000000    -0.0927599  
C59      C      0.499680000000     0.528090000000     0.764730000000    -0.0339409  
C60      C      0.517840000000     0.482620000000     0.865630000000     0.0701393  
C61      C      0.477580000000     0.520100000000     0.863710000000     0.0988644  
C62      C      0.499900000000     0.527720000000     0.732450000000    -0.0350541  
C63      C      0.501180000000     0.499230000000     0.681910000000     0.0492426  
C64      C      0.500140000000     0.500780000000     0.815900000000     0.0540526  
C65      C      0.472840000000     0.477860000000     0.331550000000    -0.100338   
C66      C      0.517480000000     0.516230000000     0.133310000000     0.0711004  
C67      C      0.476460000000     0.479900000000     0.132650000000     0.071063   
C68      C      0.517280000000     0.516520000000     0.165590000000    -0.089998   
C69      C      0.523190000000     0.498560000000     0.233270000000    -0.0351132  
C70      C      0.522570000000     0.498360000000     0.265580000000    -0.0338327  
C71      C      0.495530000000     0.498190000000     0.216190000000    -0.00509545 
C72      C      0.475610000000     0.479660000000     0.164930000000    -0.0901241  
C73      C      0.494270000000     0.497770000000     0.281550000000    -0.00742925 
C74      C      0.513560000000     0.515360000000     0.333260000000    -0.0925733  
C75      C      0.466620000000     0.497610000000     0.264470000000    -0.0339046  
C76      C      0.512590000000     0.514380000000     0.365450000000     0.0698882  
C77      C      0.472130000000     0.477110000000     0.364020000000     0.0990172  
C78      C      0.467240000000     0.497810000000     0.232180000000    -0.0351009  
C79      C      0.496160000000     0.498120000000     0.181830000000     0.049101   
C80      C      0.493560000000     0.497020000000     0.315900000000     0.0539149  
C81      C      0.468970000000     0.829780000000     0.480470000000    -0.100473   
C82      C      0.515250000000     0.631330000000     0.478160000000     0.0708885  
C83      C      0.478080000000     0.631160000000     0.518430000000     0.0712902  
C84      C      0.515120000000     0.663640000000     0.477650000000    -0.0899764  
C85      C      0.522320000000     0.731750000000     0.494410000000    -0.035112   
C86      C      0.521360000000     0.764060000000     0.494300000000    -0.033819   
C87      C      0.494990000000     0.714420000000     0.497430000000    -0.00516037 
C88      C      0.477340000000     0.663400000000     0.518480000000    -0.0902123  
C89      C      0.493030000000     0.779760000000     0.497070000000    -0.00747763 
C90      C      0.513480000000     0.831400000000     0.513410000000    -0.0927477  
C91      C      0.465710000000     0.762420000000     0.500020000000    -0.0338857  
C92      C      0.511950000000     0.863590000000     0.513240000000     0.0701428  
C93      C      0.467690000000     0.862240000000     0.480570000000     0.0992465  
C94      C      0.466680000000     0.730150000000     0.500200000000    -0.0350367  
C95      C      0.495900000000     0.680080000000     0.497880000000     0.0491448  
C96      C      0.491910000000     0.814100000000     0.496890000000     0.0540346  
C97      C      0.515340000000     0.165440000000     0.476600000000    -0.100556   
C98      C      0.514330000000     0.363620000000     0.519600000000     0.0710778  
C99      C      0.474830000000     0.363790000000     0.481600000000     0.0711933  
C100     C      0.514490000000     0.331340000000     0.519890000000    -0.0901888  
C101     C      0.496880000000     0.263620000000     0.527690000000    -0.0351116  
C102     C      0.497440000000     0.231320000000     0.527170000000    -0.0338352  
C103     C      0.494800000000     0.280550000000     0.500010000000    -0.00520412 
C104     C      0.474490000000     0.331510000000     0.481220000000    -0.0901855  
C105     C      0.496110000000     0.215250000000     0.498960000000    -0.00749782 
C106     C      0.479960000000     0.163480000000     0.519180000000    -0.0926895  
C107     C      0.493930000000     0.232180000000     0.471310000000    -0.0338419  
C108     C      0.480880000000     0.131300000000     0.517960000000     0.0701129  
C109     C      0.516110000000     0.132980000000     0.475710000000     0.0990926  
C110     C      0.493230000000     0.264450000000     0.471840000000    -0.0349987  
C111     C      0.494510000000     0.314880000000     0.500460000000     0.0492594  
C112     C      0.497170000000     0.180930000000     0.498300000000     0.0541436  
C113     C      0.522960000000     0.666890000000     0.019360000000    -0.0996374  
C114     C      0.482110000000     0.865080000000     0.976170000000     0.0708444  
C115     C      0.520650000000     0.865590000000     0.015140000000     0.0715011  
C116     C      0.481930000000     0.832770000000     0.976220000000    -0.0898875  
C117     C      0.499480000000     0.764910000000     0.969590000000    -0.0350969  
C118     C      0.499800000000     0.732610000000     0.970420000000    -0.0338146  
C119     C      0.501350000000     0.782150000000     0.997080000000    -0.00548216 
C120     C      0.521040000000     0.833350000000     0.015780000000    -0.0895937  
C121     C      0.502020000000     0.716830000000     0.998740000000    -0.00772627 
C122     C      0.483110000000     0.665120000000     0.980930000000    -0.0922784  
C123     C      0.503680000000     0.734070000000     0.026230000000    -0.0334602  
C124     C      0.483870000000     0.632950000000     0.982190000000     0.0697653  
C125     C      0.523510000000     0.634410000000     0.020330000000     0.0989059  
C126     C      0.503340000000     0.766340000000     0.025410000000    -0.0346236  
C127     C      0.501450000000     0.816500000000     0.996290000000     0.0486802  
C128     C      0.502700000000     0.682490000000     0.999670000000     0.0534733  
C129     C      0.475650000000     0.166420000000     0.021370000000    -0.100304   
C130     C      0.514520000000     0.365110000000     0.978910000000     0.0708078  
C131     C      0.476160000000     0.365680000000     0.018050000000     0.0712869  
C132     C      0.514670000000     0.332830000000     0.978930000000    -0.0900463  
C133     C      0.497110000000     0.265150000000     0.972010000000    -0.0347416  
C134     C      0.497220000000     0.232850000000     0.972600000000    -0.0346083  
C135     C      0.495330000000     0.282190000000     0.999630000000    -0.0058211  
C136     C      0.475770000000     0.333400000000     0.018700000000    -0.0895948  
C137     C      0.495540000000     0.216820000000     0.000820000000    -0.00673299 
C138     C      0.514810000000     0.165470000000     0.982220000000    -0.0929156  
C139     C      0.493850000000     0.233870000000     0.028450000000    -0.0343046  
C140     C      0.514370000000     0.133270000000     0.983090000000     0.0696606  
C141     C      0.475450000000     0.133930000000     0.021990000000     0.0990279  
C142     C      0.493730000000     0.266160000000     0.027860000000    -0.034308   
C143     C      0.495210000000     0.316550000000     0.999040000000     0.0487056  
C144     C      0.495360000000     0.182460000000     0.001470000000     0.0542545  
C145     C      0.522480000000     0.018800000000     0.830220000000    -0.100403   
C146     C      0.477860000000     0.017720000000     0.632000000000     0.0709739  
C147     C      0.515210000000     0.977620000000     0.631660000000     0.0709764  
C148     C      0.478100000000     0.018250000000     0.664280000000    -0.0901535  
C149     C      0.470670000000     0.001130000000     0.732120000000    -0.0352774  
C150     C      0.471420000000     0.001770000000     0.764420000000    -0.0337889  
C151     C      0.498190000000     0.998610000000     0.715000000000    -0.00516323 
C152     C      0.516130000000     0.977650000000     0.663950000000    -0.0901149  
C153     C      0.499700000000     0.000090000000     0.780320000000    -0.0075958  
C154     C      0.479530000000     0.983850000000     0.832070000000    -0.0927449  
C155     C      0.527220000000     0.997550000000     0.763210000000    -0.0338742  
C156     C      0.480750000000     0.984650000000     0.864250000000     0.0701576  
C157     C      0.523390000000     0.019410000000     0.862710000000     0.0990668  
C158     C      0.526460000000     0.996750000000     0.730920000000    -0.0351223  
C159     C      0.497430000000     0.998120000000     0.680670000000     0.0491051  
C160     C      0.500520000000     0.000970000000     0.814650000000     0.0538837  
C161     C      0.512810000000     0.973070000000     0.166100000000    -0.100494   
C162     C      0.512540000000     0.016120000000     0.364050000000     0.0711685  
C163     C      0.472260000000     0.978960000000     0.364480000000     0.0711845  
C164     C      0.512570000000     0.016340000000     0.331770000000    -0.0901179  
C165     C      0.494960000000     0.024510000000     0.264170000000    -0.0351382  
C166     C      0.495600000000     0.024000000000     0.231870000000    -0.033799   
C167     C      0.492210000000     0.996890000000     0.281090000000    -0.00512946 
C168     C      0.471760000000     0.978530000000     0.332190000000    -0.0901151  
C169     C      0.493660000000     0.995840000000     0.215770000000    -0.00746015 
C170     C      0.478560000000     0.016560000000     0.163860000000    -0.092685   
C171     C      0.490720000000     0.968250000000     0.232680000000    -0.0338223  
C172     C      0.480030000000     0.015580000000     0.131690000000     0.0703249  
C173     C      0.514060000000     0.972370000000     0.133640000000     0.0993777  
C174     C      0.489950000000     0.968770000000     0.264960000000    -0.0350315  
C175     C      0.492090000000     0.997330000000     0.315430000000     0.0492594  
C176     C      0.495040000000     0.995200000000     0.181460000000     0.0541441  
C177     C      0.828690000000     0.475420000000     0.517270000000    -0.100272   
C178     C      0.629790000000     0.515890000000     0.477050000000     0.0709356  
C179     C      0.629950000000     0.477210000000     0.515850000000     0.0711718  
C180     C      0.662090000000     0.516270000000     0.476720000000    -0.0900685  
C181     C      0.729950000000     0.499170000000     0.469110000000    -0.0350921  
C182     C      0.762280000000     0.498960000000     0.469480000000    -0.0338829  
C183     C      0.713100000000     0.497000000000     0.496820000000    -0.00511051 
C184     C      0.662210000000     0.477000000000     0.516120000000    -0.0901964  
C185     C      0.778470000000     0.496550000000     0.497560000000    -0.00738886 
C186     C      0.829950000000     0.515640000000     0.479210000000    -0.0925093  
C187     C      0.761610000000     0.494630000000     0.525270000000    -0.0339142  
C188     C      0.862150000000     0.514880000000     0.480040000000     0.0700314  
C189     C      0.861180000000     0.474860000000     0.517800000000     0.0990341  
C190     C      0.729320000000     0.494860000000     0.524910000000    -0.0350809  
C191     C      0.678730000000     0.496750000000     0.496500000000     0.0491004  
C192     C      0.812820000000     0.495890000000     0.498000000000     0.0539596  
C193     C      0.328130000000     0.518030000000     0.520990000000    -0.100425   
C194     C      0.129960000000     0.483220000000     0.473390000000     0.0711727  
C195     C      0.129830000000     0.520770000000     0.513310000000     0.0712339  
C196     C      0.162250000000     0.482860000000     0.473280000000    -0.0899127  
C197     C      0.229430000000     0.473440000000     0.491590000000    -0.0350087  
C198     C      0.261720000000     0.473040000000     0.492860000000    -0.0337672  
C199     C      0.213110000000     0.501430000000     0.494310000000    -0.0050402  
C200     C      0.162100000000     0.520960000000     0.513810000000    -0.08999    
C201     C      0.278420000000     0.500610000000     0.496930000000    -0.00739158 
C202     C      0.330210000000     0.481790000000     0.479150000000    -0.0926143  
C203     C      0.262140000000     0.528620000000     0.499350000000    -0.0339042  
C204     C      0.362360000000     0.481830000000     0.481220000000     0.0701928  
C205     C      0.360560000000     0.517680000000     0.522930000000     0.0992233  
C206     C      0.229870000000     0.529030000000     0.498030000000    -0.0350418  
C207     C      0.178750000000     0.501800000000     0.493710000000     0.0492098  
C208     C      0.312710000000     0.500170000000     0.498970000000     0.0540966  
C209     C      0.830940000000     0.463710000000     0.014490000000    -0.0998327  
C210     C      0.633140000000     0.512440000000     0.018590000000     0.0713545  
C211     C      0.631460000000     0.474950000000     0.978650000000     0.0708403  
C212     C      0.665410000000     0.511430000000     0.018750000000    -0.0895311  
C213     C      0.733080000000     0.517510000000     0.000850000000    -0.034743   
C214     C      0.765370000000     0.516230000000     0.000670000000    -0.0332597  
C215     C      0.715450000000     0.490320000000     0.998310000000    -0.00548281 
C216     C      0.663710000000     0.473320000000     0.978260000000    -0.090094   
C217     C      0.780780000000     0.487740000000     0.998050000000    -0.00786691 
C218     C      0.832290000000     0.507820000000     0.981010000000    -0.0925702  
C219     C      0.763150000000     0.460550000000     0.995550000000    -0.0338806  
C220     C      0.864460000000     0.506460000000     0.981120000000     0.0701317  
C221     C      0.863440000000     0.462610000000     0.014340000000     0.099457   
C222     C      0.730860000000     0.461830000000     0.995640000000    -0.0351225  
C223     C      0.681110000000     0.491700000000     0.998450000000     0.0486551  
C224     C      0.815120000000     0.486430000000     0.997880000000     0.0535348  
C225     C      0.330880000000     0.520130000000     0.976570000000    -0.100092   
C226     C      0.131450000000     0.514760000000     0.016120000000     0.0712648  
C227     C      0.132940000000     0.477020000000     0.976410000000     0.070953   
C228     C      0.163730000000     0.515820000000     0.016890000000    -0.0895722  
C229     C      0.231740000000     0.499410000000     0.025210000000    -0.0347006  
C230     C      0.264060000000     0.500310000000     0.025370000000    -0.0334107  
C231     C      0.215380000000     0.498130000000     0.997150000000    -0.00550814 
C232     C      0.165220000000     0.477590000000     0.976510000000    -0.0899257  
C233     C      0.280720000000     0.500110000000     0.997460000000    -0.00784992 
C234     C      0.332230000000     0.483560000000     0.018140000000    -0.092083   
C235     C      0.264340000000     0.498810000000     0.969420000000    -0.0338036  
C236     C      0.364440000000     0.484530000000     0.017440000000     0.0702771  
C237     C      0.363360000000     0.520890000000     0.976150000000     0.0985537  
C238     C      0.232060000000     0.497790000000     0.969270000000    -0.0350289  
C239     C      0.181030000000     0.497130000000     0.996900000000     0.0486587  
C240     C      0.315060000000     0.501340000000     0.997500000000     0.0534632  
C241     C      0.014560000000     0.520560000000     0.663930000000    -0.0999645  
C242     C      0.017120000000     0.473110000000     0.861350000000     0.0713775  
C243     C      0.975910000000     0.509230000000     0.862340000000     0.0710349  
C244     C      0.017160000000     0.473430000000     0.829050000000    -0.0892602  
C245     C      0.999850000000     0.466290000000     0.761130000000    -0.0368212  
C246     C      0.000160000000     0.467540000000     0.728830000000    -0.0320869  
C247     C      0.996380000000     0.493430000000     0.778680000000    -0.00426724 
C248     C      0.975400000000     0.510180000000     0.830080000000    -0.0897962  
C249     C      0.997160000000     0.495970000000     0.713380000000    -0.00837493 
C250     C      0.981810000000     0.475970000000     0.661270000000    -0.0926065  
C251     C      0.993610000000     0.523080000000     0.730940000000    -0.0333575  
C252     C      0.982460000000     0.477880000000     0.629110000000     0.0701266  
C253     C      0.015020000000     0.522180000000     0.631480000000     0.0993931  
C254     C      0.993200000000     0.521820000000     0.763210000000    -0.0356207  
C255     C      0.996240000000     0.492230000000     0.813010000000     0.0483297  
C256     C      0.997900000000     0.497440000000     0.679070000000     0.053878   
C257     C      0.974190000000     0.519240000000     0.327430000000    -0.10016    
C258     C      0.980670000000     0.471620000000     0.129650000000     0.0709106  
C259     C      0.015700000000     0.513760000000     0.129050000000     0.0713786  
C260     C      0.979930000000     0.472160000000     0.161930000000    -0.0898536  
C261     C      0.997010000000     0.467880000000     0.230020000000    -0.0351507  
C262     C      0.996220000000     0.469020000000     0.262310000000    -0.0338724  
C263     C      0.996580000000     0.495250000000     0.212500000000    -0.00504372 
C264     C      0.015430000000     0.514990000000     0.161310000000    -0.0896696  
C265     C      0.994870000000     0.497550000000     0.277810000000    -0.00733048 
C266     C      0.012830000000     0.479630000000     0.329830000000    -0.0919915  
C267     C      0.994430000000     0.524910000000     0.260290000000    -0.0339185  
C268     C      0.011890000000     0.481190000000     0.361990000000     0.0703814  
C269     C      0.973470000000     0.520530000000     0.359900000000     0.0988525  
C270     C      0.995310000000     0.523780000000     0.228020000000    -0.0351336  
C271     C      0.997360000000     0.494080000000     0.178170000000     0.0486373  
C272     C      0.993930000000     0.498780000000     0.312140000000     0.0534236  
C273     C      0.014250000000     0.831880000000     0.472420000000    -0.0999344  
C274     C      0.972270000000     0.633240000000     0.478060000000     0.0709447  
C275     C      0.013560000000     0.633820000000     0.514090000000     0.0715031  
C276     C      0.971660000000     0.665530000000     0.477610000000    -0.0899002  
C277     C      0.965020000000     0.733520000000     0.495020000000    -0.0351674  
C278     C      0.965350000000     0.765830000000     0.494280000000    -0.033794   
C279     C      0.992850000000     0.716710000000     0.494990000000    -0.00549526 
C280     C      0.013650000000     0.666090000000     0.514120000000    -0.0896499  
C281     C      0.993510000000     0.782040000000     0.493330000000    -0.00789714 
C282     C      0.974340000000     0.833820000000     0.510770000000    -0.0925701  
C283     C      0.021310000000     0.765220000000     0.493340000000    -0.0334596  
C284     C      0.975440000000     0.866010000000     0.509730000000     0.0698136  
C285     C      0.015010000000     0.864340000000     0.471530000000     0.099175   
C286     C      0.020990000000     0.732950000000     0.494200000000    -0.0346592  
C287     C      0.992620000000     0.682370000000     0.495660000000     0.0486689  
C288     C      0.993980000000     0.816360000000     0.492150000000     0.0535312  
C289     C      0.020420000000     0.331830000000     0.478280000000    -0.0997878  
C290     C      0.974840000000     0.134070000000     0.478980000000     0.0710973  
C291     C      0.013870000000     0.133130000000     0.517440000000     0.0713998  
C292     C      0.974950000000     0.166350000000     0.479060000000    -0.0898225  
C293     C      0.968470000000     0.234040000000     0.497050000000    -0.0350374  
C294     C      0.969350000000     0.266340000000     0.496600000000    -0.0338197  
C295     C      0.995970000000     0.216770000000     0.498550000000    -0.00549827 
C296     C      0.014640000000     0.165410000000     0.518030000000    -0.0896619  
C297     C      0.997760000000     0.282100000000     0.497510000000    -0.00776778 
C298     C      0.978190000000     0.333980000000     0.514090000000    -0.0923325  
C299     C      0.025250000000     0.264830000000     0.499140000000    -0.0334751  
C300     C      0.979460000000     0.366150000000     0.513060000000     0.0696411  
C301     C      0.021420000000     0.364300000000     0.477500000000     0.0991054  
C302     C      0.024360000000     0.232550000000     0.499700000000    -0.0346331  
C303     C      0.995100000000     0.182440000000     0.498630000000     0.0487548  
C304     C      0.998750000000     0.316420000000     0.496590000000     0.0534109  
C305     C      0.825760000000     0.016650000000     0.475790000000    -0.100212   
C306     C      0.627850000000     0.973450000000     0.515860000000     0.070851   
C307     C      0.628340000000     0.012450000000     0.477360000000     0.0712845  
C308     C      0.660150000000     0.972500000000     0.515880000000    -0.0901337  
C309     C      0.728140000000     0.989380000000     0.523580000000    -0.0350505  
C310     C      0.760460000000     0.990160000000     0.523270000000    -0.0338552  
C311     C      0.711290000000     0.991490000000     0.495860000000    -0.00515457 
C312     C      0.660580000000     0.012070000000     0.476780000000    -0.0901686  
C313     C      0.776620000000     0.993110000000     0.495230000000    -0.00743209 
C314     C      0.828970000000     0.976220000000     0.513510000000    -0.0926303  
C315     C      0.759770000000     0.994630000000     0.467490000000    -0.03391    
C316     C      0.861110000000     0.978500000000     0.512630000000     0.0698889  
C317     C      0.858160000000     0.018750000000     0.475210000000     0.0986264  
C318     C      0.727510000000     0.993830000000     0.467790000000    -0.0350776  
C319     C      0.676930000000     0.991940000000     0.496160000000     0.0492073  
C320     C      0.810910000000     0.995280000000     0.494850000000     0.0539843  
C321     C      0.326720000000     0.021390000000     0.518980000000    -0.100267   
C322     C      0.128400000000     0.981860000000     0.475170000000     0.0710676  
C323     C      0.127800000000     0.019260000000     0.515220000000     0.071131   
C324     C      0.160700000000     0.981580000000     0.475360000000    -0.0899001  
C325     C      0.228470000000     0.999190000000     0.469130000000    -0.0350662  
C326     C      0.260780000000     0.999420000000     0.469850000000    -0.0337543  
C327     C      0.211310000000     0.000430000000     0.496710000000    -0.00511116 
C328     C      0.160070000000     0.019540000000     0.516020000000    -0.0901744  
C329     C      0.276670000000     0.000930000000     0.498170000000    -0.00748636 
C330     C      0.328290000000     0.982320000000     0.479760000000    -0.0925973  
C331     C      0.259510000000     0.002000000000     0.525740000000    -0.0338299  
C332     C      0.360470000000     0.983050000000     0.480870000000     0.0701837  
C333     C      0.359200000000     0.021920000000     0.519800000000     0.0989461  
C334     C      0.227230000000     0.001740000000     0.525030000000    -0.035101   
C335     C      0.176950000000     0.000510000000     0.496000000000     0.0491315  
C336     C      0.311010000000     0.001540000000     0.498970000000     0.0540154  
C337     C      0.974970000000     0.658280000000     0.973930000000    -0.100103   
C338     C      0.015250000000     0.856850000000     0.015360000000     0.0716341  
C339     C      0.978410000000     0.857240000000     0.974780000000     0.0707783  
C340     C      0.014960000000     0.824570000000     0.015880000000    -0.0888552  
C341     C      0.022890000000     0.756880000000     0.998780000000    -0.0352666  
C342     C      0.022380000000     0.724580000000     0.998670000000    -0.0338999  
C343     C      0.995360000000     0.773860000000     0.995630000000    -0.00517226 
C344     C      0.977500000000     0.824970000000     0.974740000000    -0.0896432  
C345     C      0.994310000000     0.708500000000     0.995430000000    -0.00758884 
C346     C      0.012340000000     0.656970000000     0.014800000000    -0.0915367  
C347     C      0.966760000000     0.725500000000     0.992480000000    -0.0339671  
C348     C      0.011800000000     0.624780000000     0.013740000000     0.0704625  
C349     C      0.974710000000     0.625800000000     0.973100000000     0.0987844  
C350     C      0.967280000000     0.757790000000     0.992550000000    -0.035249   
C351     C      0.995930000000     0.808210000000     0.995430000000     0.0479502  
C352     C      0.993820000000     0.674140000000     0.994800000000     0.0527713  
C353     C      0.025160000000     0.323210000000     0.977360000000    -0.100188   
C354     C      0.980310000000     0.124630000000     0.013700000000     0.0710829  
C355     C      0.021530000000     0.124320000000     0.977590000000     0.0711314  
C356     C      0.980500000000     0.156900000000     0.014290000000    -0.0900885  
C357     C      0.974630000000     0.224680000000     0.996640000000    -0.0355763  
C358     C      0.975210000000     0.256980000000     0.996650000000    -0.0343181  
C359     C      0.002310000000     0.207650000000     0.996500000000    -0.00466008 
C360     C      0.022380000000     0.156590000000     0.977670000000    -0.0899683  
C361     C      0.003500000000     0.273000000000     0.996520000000    -0.00695722 
C362     C      0.983820000000     0.324500000000     0.014210000000    -0.0923755  
C363     C      0.031170000000     0.255950000000     0.996590000000    -0.0339034  
C364     C      0.984610000000     0.356690000000     0.013400000000     0.0700663  
C365     C      0.025730000000     0.355680000000     0.976840000000     0.0990699  
C366     C      0.030590000000     0.223670000000     0.996570000000    -0.0351983  
C367     C      0.001720000000     0.173300000000     0.996160000000     0.0490224  
C368     C      0.004140000000     0.307350000000     0.996040000000     0.0538133  
C369     C      0.830560000000     0.973870000000     0.972880000000    -0.100345   
C370     C      0.632840000000     0.021640000000     0.980510000000     0.0708623  
C371     C      0.632970000000     0.980610000000     0.016840000000     0.0714839  
C372     C      0.665130000000     0.021430000000     0.979550000000    -0.0897566  
C373     C      0.733640000000     0.026220000000     0.995570000000    -0.0353096  
C374     C      0.765920000000     0.024940000000     0.994390000000    -0.0339187  
C375     C      0.716030000000     0.998900000000     0.996100000000    -0.00494145 
C376     C      0.665220000000     0.979710000000     0.016350000000    -0.0894061  
C377     C      0.781300000000     0.996320000000     0.993550000000    -0.00743753 
C378     C      0.833600000000     0.014200000000     0.010700000000    -0.0921305  
C379     C      0.763680000000     0.969020000000     0.994010000000    -0.0338996  
C380     C      0.865730000000     0.012210000000     0.009690000000     0.07021    
C381     C      0.863010000000     0.972170000000     0.972050000000     0.0988707  
C382     C      0.731440000000     0.970300000000     0.995290000000    -0.0351657  
C383     C      0.681730000000     0.000130000000     0.997430000000     0.0484273  
C384     C      0.815600000000     0.994860000000     0.992300000000     0.0534409  
C385     C      0.167150000000     0.967380000000     0.013460000000    -0.0996371  
C386     C      0.364700000000     0.014580000000     0.015850000000     0.0714119  
C387     C      0.366110000000     0.977400000000     0.975610000000     0.0708404  
C388     C      0.332420000000     0.014050000000     0.015790000000    -0.0894986  
C389     C      0.264760000000     0.020770000000     0.997860000000    -0.0349785  
C390     C      0.232460000000     0.019630000000     0.998060000000    -0.0346597  
C391     C      0.282240000000     0.993500000000     0.995200000000    -0.0051619  
C392     C      0.333840000000     0.976220000000     0.975020000000    -0.0900697  
C393     C      0.216920000000     0.991190000000     0.995740000000    -0.00701177 
C394     C      0.165060000000     0.011170000000     0.979590000000    -0.0924559  
C395     C      0.234400000000     0.963930000000     0.992990000000    -0.0341634  
C396     C      0.132890000000     0.009680000000     0.980260000000     0.0699627  
C397     C      0.134670000000     0.966170000000     0.013910000000     0.0993158  
C398     C      0.266690000000     0.965080000000     0.992670000000    -0.035003   
C399     C      0.316580000000     0.994650000000     0.995280000000     0.0486468  
C400     C      0.182590000000     0.989940000000     0.996290000000     0.0532579  
C401     C      0.020670000000     0.011110000000     0.826630000000    -0.100555   
C402     C      0.975550000000     0.975570000000     0.627980000000     0.0706941  
C403     C      0.014330000000     0.014280000000     0.628700000000     0.0713387  
C404     C      0.975980000000     0.973970000000     0.660260000000    -0.0899217  
C405     C      0.969850000000     0.989270000000     0.728850000000    -0.035268   
C406     C      0.970910000000     0.988870000000     0.761160000000    -0.0334012  
C407     C      0.997230000000     0.991440000000     0.711450000000    -0.0053808  
C408     C      0.015400000000     0.013210000000     0.660930000000    -0.089713   
C409     C      0.999370000000     0.990620000000     0.776800000000    -0.00861887 
C410     C      0.981470000000     0.972040000000     0.828700000000    -0.0932037  
C411     C      0.026740000000     0.992300000000     0.759360000000    -0.033125   
C412     C      0.982780000000     0.972990000000     0.860880000000     0.0698493  
C413     C      0.021740000000     0.011810000000     0.859100000000     0.0991534  
C414     C      0.025680000000     0.992730000000     0.727100000000    -0.0348575  
C415     C      0.996160000000     0.992850000000     0.677140000000     0.0486486  
C416     C      0.000520000000     0.991190000000     0.811150000000     0.0552079  
C417     C      0.974620000000     0.020280000000     0.326380000000    -0.099839   
C418     C      0.015600000000     0.973360000000     0.129130000000     0.0714179  
C419     C      0.976810000000     0.012040000000     0.127620000000     0.0710417  
C420     C      0.015740000000     0.974180000000     0.161420000000    -0.0893677  
C421     C      0.998080000000     0.968790000000     0.229270000000    -0.0350555  
C422     C      0.997840000000     0.970200000000     0.261560000000    -0.0339576  
C423     C      0.996100000000     0.995940000000     0.211520000000    -0.00496158 
C424     C      0.976390000000     0.013470000000     0.159860000000    -0.0900389  
C425     C      0.995620000000     0.998800000000     0.276830000000    -0.0070874  
C426     C      0.014310000000     0.981740000000     0.328920000000    -0.0916773  
C427     C      0.993850000000     0.025960000000     0.259080000000    -0.0339775  
C428     C      0.013240000000     0.983290000000     0.361080000000     0.0702399  
C429     C      0.973780000000     0.021580000000     0.358850000000     0.0984924  
C430     C      0.994070000000     0.024550000000     0.226810000000    -0.0351369  
C431     C      0.996070000000     0.994480000000     0.177190000000     0.0487259  
C432     C      0.994890000000     0.000310000000     0.311160000000     0.0532469  
H1       H      0.464600000000     0.533490000000     0.621760000000     0.0310968  
H2       H      0.533820000000     0.467650000000     0.877840000000     0.0315384  
H3       H      0.498730000000     0.549510000000     0.720180000000     0.0394852  
H4       H      0.504970000000     0.450530000000     0.777750000000     0.0391265  
H5       H      0.536290000000     0.467010000000     0.822430000000     0.0546664  
H6       H      0.505290000000     0.449850000000     0.721350000000     0.0393474  
H7       H      0.463380000000     0.534010000000     0.817790000000     0.0584096  
H8       H      0.465540000000     0.534170000000     0.677680000000     0.0542547  
H9       H      0.536500000000     0.464100000000     0.676740000000     0.0538313  
H10      H      0.498300000000     0.550140000000     0.776510000000     0.0393969  
H11      H      0.534610000000     0.463510000000     0.620750000000     0.0303528  
H12      H      0.460170000000     0.465180000000     0.120550000000     0.0302723  
H13      H      0.528770000000     0.529310000000     0.377440000000     0.0317485  
H14      H      0.445510000000     0.498070000000     0.219740000000     0.0394215  
H15      H      0.544280000000     0.498070000000     0.278050000000     0.0391195  
H16      H      0.529770000000     0.530810000000     0.322050000000     0.0546648  
H17      H      0.545380000000     0.498420000000     0.221670000000     0.0394598  
H18      H      0.457430000000     0.463140000000     0.318260000000     0.0581942  
H19      H      0.459170000000     0.464760000000     0.176530000000     0.0538698  
H20      H      0.533330000000     0.531430000000     0.177710000000     0.0541398  
H21      H      0.444430000000     0.497690000000     0.276080000000     0.0392331  
H22      H      0.534150000000     0.530940000000     0.121740000000     0.0311153  
H23      H      0.463290000000     0.619280000000     0.534820000000     0.031181   
H24      H      0.529570000000     0.875560000000     0.526470000000     0.0316046  
H25      H      0.445160000000     0.717510000000     0.502240000000     0.0395721  
H26      H      0.542790000000     0.776760000000     0.491730000000     0.0391044  
H27      H      0.531390000000     0.820150000000     0.526810000000     0.0548486  
H28      H      0.544530000000     0.720340000000     0.492510000000     0.0393627  
H29      H      0.452100000000     0.816550000000     0.467400000000     0.0584581  
H30      H      0.462480000000     0.675170000000     0.534850000000     0.0542476  
H31      H      0.529630000000     0.675610000000     0.461120000000     0.054054   
H32      H      0.443550000000     0.773790000000     0.502530000000     0.0392735  
H33      H      0.530320000000     0.619530000000     0.461970000000     0.0303511  
H34      H      0.458920000000     0.375690000000     0.466320000000     0.0310625  
H35      H      0.466820000000     0.119210000000     0.534830000000     0.0322764  
H36      H      0.491900000000     0.276810000000     0.450100000000     0.0396657  
H37      H      0.499350000000     0.218930000000     0.548840000000     0.0391884  
H38      H      0.465360000000     0.174610000000     0.536210000000     0.0551063  
H39      H      0.497830000000     0.275350000000     0.549790000000     0.039439   
H40      H      0.529170000000     0.178840000000     0.460490000000     0.0585707  
H41      H      0.458400000000     0.319690000000     0.466110000000     0.0543642  
H42      H      0.530590000000     0.319380000000     0.534890000000     0.0541558  
H43      H      0.492530000000     0.220450000000     0.449230000000     0.0394248  
H44      H      0.530340000000     0.375390000000     0.534880000000     0.0304955  
H45      H      0.536210000000     0.877610000000     0.030680000000     0.0311532  
H46      H      0.467850000000     0.620980000000     0.967070000000     0.0330505  
H47      H      0.504260000000     0.778900000000     0.047050000000     0.0395713  
H48      H      0.498880000000     0.720000000000     0.948810000000     0.0392402  
H49      H      0.466810000000     0.676300000000     0.965560000000     0.0550306  
H50      H      0.498340000000     0.776380000000     0.947370000000     0.0394129  
H51      H      0.538700000000     0.680190000000     0.033700000000     0.0582376  
H52      H      0.536870000000     0.821720000000     0.031320000000     0.0540805  
H53      H      0.466190000000     0.820670000000     0.960960000000     0.0538876  
H54      H      0.504850000000     0.722600000000     0.048460000000     0.0393759  
H55      H      0.466470000000     0.876730000000     0.960430000000     0.0303669  
H56      H      0.460710000000     0.377750000000     0.033660000000     0.0304722  
H57      H      0.530180000000     0.121610000000     0.967530000000     0.0323234  
H58      H      0.492860000000     0.278580000000     0.049580000000     0.0393455  
H59      H      0.498090000000     0.220410000000     0.950880000000     0.0393008  
H60      H      0.530730000000     0.176980000000     0.966690000000     0.0548004  
H61      H      0.497940000000     0.276780000000     0.949850000000     0.0392558  
H62      H      0.460060000000     0.179390000000     0.036170000000     0.0582489  
H63      H      0.460040000000     0.321760000000     0.034320000000     0.0539699  
H64      H      0.530340000000     0.320740000000     0.963590000000     0.0538017  
H65      H      0.493050000000     0.222250000000     0.050610000000     0.0393176  
H66      H      0.530110000000     0.376710000000     0.963090000000     0.030455   
H67      H      0.530020000000     0.961320000000     0.619690000000     0.03045    
H68      H      0.463660000000     0.970820000000     0.876290000000     0.0315991  
H69      H      0.548090000000     0.995070000000     0.718400000000     0.0394447  
H70      H      0.449840000000     0.003960000000     0.776950000000     0.0391208  
H71      H      0.462350000000     0.969460000000     0.820890000000     0.0548765  
H72      H      0.448500000000     0.002310000000     0.720550000000     0.0395609  
H73      H      0.538840000000     0.032380000000     0.816870000000     0.0584181  
H74      H      0.531160000000     0.961440000000     0.675720000000     0.0540951  
H75      H      0.463530000000     0.034700000000     0.676280000000     0.0542498  
H76      H      0.549360000000     0.995890000000     0.774800000000     0.0392573  
H77      H      0.462640000000     0.033830000000     0.620300000000     0.0310052  
H78      H      0.456080000000     0.964060000000     0.376500000000     0.0309887  
H79      H      0.466760000000     0.032980000000     0.119460000000     0.0321195  
H80      H      0.488080000000     0.947070000000     0.277310000000     0.0396626  
H81      H      0.498100000000     0.045620000000     0.219500000000     0.0393061  
H82      H      0.464210000000     0.033880000000     0.174880000000     0.0550877  
H83      H      0.496440000000     0.046570000000     0.275910000000     0.0395803  
H84      H      0.525860000000     0.956390000000     0.179580000000     0.0585912  
H85      H      0.455300000000     0.963740000000     0.320470000000     0.0543228  
H86      H      0.528940000000     0.030970000000     0.319720000000     0.0543499  
H87      H      0.488830000000     0.946220000000     0.220930000000     0.039336   
H88      H      0.528920000000     0.031090000000     0.375710000000     0.0311091  
H89      H      0.618190000000     0.461510000000     0.531460000000     0.0306115  
H90      H      0.873930000000     0.531040000000     0.464930000000     0.0324002  
H91      H      0.717060000000     0.493720000000     0.546710000000     0.0394843  
H92      H      0.774590000000     0.500090000000     0.447710000000     0.0392669  
H93      H      0.818560000000     0.532070000000     0.464130000000     0.0548612  
H94      H      0.718180000000     0.500430000000     0.447050000000     0.03937    
H95      H      0.815570000000     0.459530000000     0.531620000000     0.0582971  
H96      H      0.674100000000     0.461160000000     0.531440000000     0.0540137  
H97      H      0.673920000000     0.532140000000     0.461390000000     0.0538401  
H98      H      0.773390000000     0.493300000000     0.547330000000     0.0393601  
H99      H      0.617860000000     0.531530000000     0.461500000000     0.0302681  
H100     H      0.117950000000     0.535840000000     0.529430000000     0.0311765  
H101     H      0.374500000000     0.467300000000     0.464790000000     0.0323012  
H102     H      0.218060000000     0.551040000000     0.499660000000     0.0394329  
H103     H      0.273580000000     0.451040000000     0.491310000000     0.0392615  
H104     H      0.319170000000     0.467720000000     0.461620000000     0.0549291  
H105     H      0.217230000000     0.451720000000     0.489150000000     0.0395892  
H106     H      0.314680000000     0.531830000000     0.537090000000     0.0584377  
H107     H      0.173870000000     0.535680000000     0.530280000000     0.0542411  
H108     H      0.174180000000     0.467990000000     0.457040000000     0.0540786  
H109     H      0.274360000000     0.550310000000     0.501990000000     0.0394308  
H110     H      0.118160000000     0.468160000000     0.457190000000     0.0309988  
H111     H      0.618950000000     0.460390000000     0.962540000000     0.0303775  
H112     H      0.876280000000     0.523970000000     0.967630000000     0.0323357  
H113     H      0.717960000000     0.440440000000     0.993940000000     0.0393348  
H114     H      0.778280000000     0.537570000000     0.002910000000     0.0393437  
H115     H      0.820920000000     0.525530000000     0.967420000000     0.0549262  
H116     H      0.721940000000     0.539850000000     0.002620000000     0.0396533  
H117     H      0.817820000000     0.446950000000     0.027790000000     0.058451   
H118     H      0.674910000000     0.458030000000     0.961910000000     0.0540134  
H119     H      0.677940000000     0.525760000000     0.035020000000     0.0542438  
H120     H      0.774320000000     0.438270000000     0.993180000000     0.039022   
H121     H      0.621980000000     0.527980000000     0.034790000000     0.0310902  
H122     H      0.121710000000     0.461440000000     0.960300000000     0.0311963  
H123     H      0.376310000000     0.470060000000     0.034130000000     0.0315833  
H124     H      0.220150000000     0.497100000000     0.947250000000     0.03962    
H125     H      0.276010000000     0.501530000000     0.047340000000     0.0390796  
H126     H      0.320860000000     0.468460000000     0.034570000000     0.05479    
H127     H      0.219580000000     0.499390000000     0.047100000000     0.0394651  
H128     H      0.317720000000     0.534360000000     0.960600000000     0.0584533  
H129     H      0.177680000000     0.462470000000     0.960910000000     0.0542862  
H130     H      0.175020000000     0.531540000000     0.032770000000     0.0541111  
H131     H      0.276500000000     0.498280000000     0.947530000000     0.039458   
H132     H      0.119010000000     0.529710000000     0.031920000000     0.0304635  
H133     H      0.959360000000     0.523540000000     0.874570000000     0.0312216  
H134     H      0.969450000000     0.460390000000     0.616730000000     0.0322009  
H135     H      0.990780000000     0.543180000000     0.776040000000     0.0397952  
H136     H      0.003150000000     0.446280000000     0.715960000000     0.039098   
H137     H      0.968320000000     0.457860000000     0.672110000000     0.0550177  
H138     H      0.002070000000     0.444020000000     0.772360000000     0.0403693  
H139     H      0.027400000000     0.537270000000     0.677580000000     0.0586299  
H140     H      0.958560000000     0.524730000000     0.818610000000     0.0542947  
H141     H      0.033890000000     0.459430000000     0.816760000000     0.0543132  
H142     H      0.990910000000     0.545300000000     0.719730000000     0.0392113  
H143     H      0.033870000000     0.458390000000     0.872790000000     0.0310964  
H144     H      0.030060000000     0.530390000000     0.116980000000     0.0304189  
H145     H      0.027280000000     0.465640000000     0.374220000000     0.0325118  
H146     H      0.994630000000     0.545280000000     0.215210000000     0.0394454  
H147     H      0.996330000000     0.447510000000     0.275130000000     0.0392291  
H148     H      0.028730000000     0.463670000000     0.318900000000     0.0551023  
H149     H      0.998280000000     0.445540000000     0.218790000000     0.0395039  
H150     H      0.959080000000     0.534020000000     0.313880000000     0.0583879  
H151     H      0.029590000000     0.532050000000     0.172940000000     0.0541108  
H152     H      0.965360000000     0.455790000000     0.174030000000     0.0543394  
H153     H      0.993730000000     0.547270000000     0.271540000000     0.0392597  
H154     H      0.966660000000     0.454380000000     0.118050000000     0.0311806  
H155     H      0.030270000000     0.622240000000     0.528750000000     0.0311238  
H156     H      0.959660000000     0.878080000000     0.525020000000     0.0317019  
H157     H      0.042820000000     0.720690000000     0.493840000000     0.0395847  
H158     H      0.943540000000     0.778130000000     0.494050000000     0.0390921  
H159     H      0.958430000000     0.822690000000     0.526590000000     0.0547506  
H160     H      0.942970000000     0.721700000000     0.495900000000     0.0394672  
H161     H      0.029270000000     0.818490000000     0.457390000000     0.0584199  
H162     H      0.029970000000     0.678190000000     0.528760000000     0.0542945  
H163     H      0.955220000000     0.677200000000     0.462760000000     0.0542084  
H164     H      0.043390000000     0.777020000000     0.492950000000     0.0393907  
H165     H      0.955790000000     0.621150000000     0.463540000000     0.03092    
H166     H      0.029410000000     0.120920000000     0.532850000000     0.030474   
H167     H      0.962670000000     0.378320000000     0.527150000000     0.0322804  
H168     H      0.045970000000     0.219940000000     0.500580000000     0.0395569  
H169     H      0.947790000000     0.278970000000     0.495110000000     0.0393819  
H170     H      0.961270000000     0.322930000000     0.528890000000     0.0549428  
H171     H      0.946210000000     0.222590000000     0.496440000000     0.0396441  
H172     H      0.036460000000     0.318380000000     0.464430000000     0.0584491  
H173     H      0.030300000000     0.176910000000     0.533820000000     0.0541339  
H174     H      0.959690000000     0.178600000000     0.463430000000     0.0544695  
H175     H      0.047490000000     0.276290000000     0.500210000000     0.0392517  
H176     H      0.959010000000     0.122610000000     0.463280000000     0.0316515  
H177     H      0.616720000000     0.028520000000     0.462020000000     0.0312261  
H178     H      0.873710000000     0.962820000000     0.527590000000     0.0315396  
H179     H      0.715260000000     0.994900000000     0.445980000000     0.0395711  
H180     H      0.772770000000     0.989260000000     0.545060000000     0.0390462  
H181     H      0.818360000000     0.959180000000     0.528480000000     0.0545553  
H182     H      0.716340000000     0.987920000000     0.545620000000     0.039332   
H183     H      0.811880000000     0.032050000000     0.461610000000     0.0584255  
H184     H      0.672610000000     0.027840000000     0.461500000000     0.0543175  
H185     H      0.671850000000     0.956350000000     0.531010000000     0.0537745  
H186     H      0.771560000000     0.996320000000     0.445460000000     0.0395084  
H187     H      0.615790000000     0.957940000000     0.531420000000     0.0301826  
H188     H      0.115740000000     0.034410000000     0.531130000000     0.030431   
H189     H      0.372380000000     0.967340000000     0.465380000000     0.0324195  
H190     H      0.214730000000     0.002170000000     0.546720000000     0.0393931  
H191     H      0.273330000000     0.998980000000     0.448190000000     0.0392744  
H192     H      0.317020000000     0.966340000000     0.464120000000     0.054962   
H193     H      0.216940000000     0.998600000000     0.446920000000     0.0395262  
H194     H      0.313480000000     0.036830000000     0.533720000000     0.058241   
H195     H      0.171670000000     0.034890000000     0.532040000000     0.0539069  
H196     H      0.172810000000     0.966230000000     0.459720000000     0.0541043  
H197     H      0.271060000000     0.002650000000     0.547960000000     0.039227   
H198     H      0.116790000000     0.966710000000     0.458930000000     0.0309735  
H199     H      0.963830000000     0.869240000000     0.958300000000     0.0309999  
H200     H      0.026660000000     0.612950000000     0.030110000000     0.0317     
H201     H      0.945610000000     0.770180000000     0.990580000000     0.0394678  
H202     H      0.044060000000     0.712200000000     0.000540000000     0.0395987  
H203     H      0.027040000000     0.668320000000     0.031590000000     0.0545597  
H204     H      0.044950000000     0.768560000000     0.000760000000     0.0400164  
H205     H      0.960880000000     0.671400000000     0.957820000000     0.0581078  
H206     H      0.962740000000     0.813240000000     0.958260000000     0.0540005  
H207     H      0.029310000000     0.812550000000     0.032510000000     0.0540526  
H208     H      0.944700000000     0.713830000000     0.990460000000     0.0391065  
H209     H      0.030270000000     0.868520000000     0.031680000000     0.031129   
H210     H      0.037900000000     0.112370000000     0.962840000000     0.0308915  
H211     H      0.968040000000     0.368510000000     0.028040000000     0.032289   
H212     H      0.052320000000     0.211240000000     0.996990000000     0.0394484  
H213     H      0.953490000000     0.269420000000     0.996160000000     0.0391159  
H214     H      0.967420000000     0.313130000000     0.029350000000     0.0548123  
H215     H      0.952460000000     0.213050000000     0.996170000000     0.0393312  
H216     H      0.040970000000     0.310100000000     0.962910000000     0.0582846  
H217     H      0.038910000000     0.168340000000     0.962970000000     0.0541046  
H218     H      0.964350000000     0.168890000000     0.029210000000     0.0539053  
H219     H      0.053350000000     0.267580000000     0.997030000000     0.0391708  
H220     H      0.963550000000     0.112910000000     0.028210000000     0.0303359  
H221     H      0.621200000000     0.964280000000     0.031780000000     0.0312608  
H222     H      0.878220000000     0.027890000000     0.024740000000     0.0318054  
H223     H      0.718550000000     0.948830000000     0.995330000000     0.0395336  
H224     H      0.778840000000     0.046380000000     0.993820000000     0.0389496  
H225     H      0.822920000000     0.030610000000     0.026330000000     0.0548066  
H226     H      0.722480000000     0.048610000000     0.996430000000     0.0393951  
H227     H      0.816770000000     0.958970000000     0.958110000000     0.0583286  
H228     H      0.677140000000     0.963190000000     0.030920000000     0.0543625  
H229     H      0.676970000000     0.037460000000     0.964390000000     0.0541149  
H230     H      0.774840000000     0.946610000000     0.993710000000     0.0392759  
H231     H      0.620930000000     0.038290000000     0.966050000000     0.0308999  
H232     H      0.378510000000     0.962760000000     0.959480000000     0.030356   
H233     H      0.120760000000     0.027000000000     0.966800000000     0.0321463  
H234     H      0.279480000000     0.943630000000     0.990880000000     0.0394612  
H235     H      0.219660000000     0.041010000000     0.000440000000     0.039836   
H236     H      0.176140000000     0.028800000000     0.965670000000     0.0548394  
H237     H      0.276040000000     0.043050000000     0.999530000000     0.0393746  
H238     H      0.180580000000     0.950820000000     0.026720000000     0.0584765  
H239     H      0.322510000000     0.961180000000     0.958520000000     0.054015   
H240     H      0.319990000000     0.028420000000     0.032100000000     0.0544196  
H241     H      0.223120000000     0.941690000000     0.990830000000     0.0392796  
H242     H      0.375970000000     0.029830000000     0.032240000000     0.0312342  
H243     H      0.029650000000     0.030440000000     0.617200000000     0.0306048  
H244     H      0.967350000000     0.957390000000     0.873010000000     0.0323744  
H245     H      0.047220000000     0.993840000000     0.714370000000     0.0395064  
H246     H      0.949380000000     0.987930000000     0.773900000000     0.0390849  
H247     H      0.965750000000     0.955990000000     0.817640000000     0.0549847  
H248     H      0.947540000000     0.988600000000     0.717510000000     0.0394684  
H249     H      0.035300000000     0.026500000000     0.813230000000     0.0584328  
H250     H      0.031020000000     0.028570000000     0.673060000000     0.0539996  
H251     H      0.960900000000     0.957690000000     0.671850000000     0.0538489  
H252     H      0.049070000000     0.993080000000     0.770660000000     0.039118   
H253     H      0.959710000000     0.960410000000     0.615840000000     0.0302438  
H254     H      0.961170000000     0.027180000000     0.115180000000     0.0305246  
H255     H      0.029060000000     0.968240000000     0.373370000000     0.0324183  
H256     H      0.993060000000     0.045930000000     0.213840000000     0.0395603  
H257     H      0.998820000000     0.948830000000     0.274550000000     0.0393074  
H258     H      0.030660000000     0.966190000000     0.318040000000     0.0548409  
H259     H      0.999240000000     0.946350000000     0.218220000000     0.0394498  
H260     H      0.959060000000     0.034550000000     0.312800000000     0.0582893  
H261     H      0.960480000000     0.029190000000     0.171110000000     0.0540327  
H262     H      0.031570000000     0.959310000000     0.173880000000     0.0542491  
H263     H      0.992640000000     0.048400000000     0.270130000000     0.0393105  
H264     H      0.031360000000     0.957430000000     0.117900000000     0.031161   
N1       N      0.497370000000     0.501520000000     0.881140000000    -0.185249   
N2       N      0.499510000000     0.498470000000     0.617040000000    -0.18443    
N3       N      0.492260000000     0.495540000000     0.381230000000    -0.184966   
N4       N      0.497210000000     0.498070000000     0.116920000000    -0.184207   
N5       N      0.489610000000     0.879380000000     0.496870000000    -0.185092   
N6       N      0.496790000000     0.615180000000     0.498350000000    -0.184211   
N7       N      0.498620000000     0.115650000000     0.496560000000    -0.185096   
N8       N      0.494700000000     0.379770000000     0.500540000000    -0.184275   
N9       N      0.503670000000     0.617200000000     0.001600000000    -0.184758   
N10      N      0.501230000000     0.881390000000     0.995590000000    -0.184471   
N11      N      0.495000000000     0.117110000000     0.002600000000    -0.184694   
N12      N      0.495480000000     0.381460000000     0.998390000000    -0.18428    
N13      N      0.502210000000     0.002250000000     0.879950000000    -0.185101   
N14      N      0.496290000000     0.997570000000     0.615760000000    -0.184107   
N15      N      0.497700000000     0.994020000000     0.116220000000    -0.185307   
N16      N      0.492570000000     0.997540000000     0.380330000000    -0.184281   
N17      N      0.878160000000     0.494910000000     0.499080000000    -0.184933   
N18      N      0.613800000000     0.496590000000     0.496560000000    -0.18426    
N19      N      0.377930000000     0.499720000000     0.502540000000    -0.185171   
N20      N      0.113830000000     0.501950000000     0.493340000000    -0.184189   
N21      N      0.880420000000     0.484440000000     0.997760000000    -0.185225   
N22      N      0.616240000000     0.494350000000     0.998680000000    -0.184333   
N23      N      0.380390000000     0.502880000000     0.996800000000    -0.185132   
N24      N      0.116130000000     0.495490000000     0.996040000000    -0.184273   
N25      N      0.998900000000     0.500530000000     0.613830000000    -0.185196   
N26      N      0.996720000000     0.490960000000     0.877900000000    -0.184234   
N27      N      0.992520000000     0.501280000000     0.377430000000    -0.185008   
N28      N      0.998380000000     0.492310000000     0.113280000000    -0.184295   
N29      N      0.995530000000     0.881670000000     0.490540000000    -0.185098   
N30      N      0.993140000000     0.617470000000     0.496080000000    -0.184316   
N31      N      0.000560000000     0.381690000000     0.494890000000    -0.184567   
N32      N      0.994230000000     0.117540000000     0.497950000000    -0.184369   
N33      N      0.876110000000     0.999340000000     0.493710000000    -0.184918   
N34      N      0.612030000000     0.993310000000     0.496760000000    -0.184255   
N35      N      0.376330000000     0.002480000000     0.500570000000    -0.184955   
N36      N      0.112040000000     0.000520000000     0.495000000000    -0.18429    
N37      N      0.993270000000     0.608800000000     0.993280000000    -0.185367   
N38      N      0.997130000000     0.873100000000     0.994950000000    -0.184357   
N39      N      0.005040000000     0.372660000000     0.994840000000    -0.185038   
N40      N      0.000670000000     0.108420000000     0.995490000000    -0.184344   
N41      N      0.880850000000     0.991490000000     0.990730000000    -0.185119   
N42      N      0.616840000000     0.001240000000     0.998860000000    -0.184257   
N43      N      0.117310000000     0.987680000000     0.997300000000    -0.185175   
N44      N      0.381470000000     0.996360000000     0.995950000000    -0.184307   
N45      N      0.002540000000     0.992580000000     0.876490000000    -0.184766   
N46      N      0.994640000000     0.995530000000     0.612290000000    -0.184228   
N47      N      0.993250000000     0.002830000000     0.376450000000    -0.184998   
N48      N      0.996350000000     0.992220000000     0.112320000000    -0.184346   
O1       O      0.999080000000     0.990760000000     0.994690000000    -0.368172   
O2       O      0.928440000000     0.973470000000     0.974050000000    -0.299506   
O3       O      0.978980000000     0.009260000000     0.065220000000    -0.303015   
O4       O      0.014990000000     0.919320000000     0.013780000000    -0.301445   
O5       O      0.927200000000     0.009140000000     0.010260000000    -0.302169   
O6       O      0.980980000000     0.919750000000     0.975550000000    -0.30201    
O7       O      0.015190000000     0.973150000000     0.066560000000    -0.301803   
O8       O      0.071350000000     0.007290000000     0.978790000000    -0.302168   
O9       O      0.980800000000     0.062120000000     0.012000000000    -0.303125   
O10      O      0.069410000000     0.971000000000     0.014360000000    -0.2992     
O11      O      0.019200000000     0.061840000000     0.978210000000    -0.302483   
O12      O      0.019400000000     0.009410000000     0.924420000000    -0.299799   
O13      O      0.983330000000     0.973630000000     0.922480000000    -0.302118   
O14      O      0.994340000000     0.999770000000     0.494730000000    -0.367854   
O15      O      0.012120000000     0.070640000000     0.515050000000    -0.30275    
O16      O      0.976010000000     0.019770000000     0.424190000000    -0.299687   
O17      O      0.065800000000     0.982990000000     0.475800000000    -0.302291   
O18      O      0.976150000000     0.071570000000     0.478720000000    -0.302285   
O19      O      0.065380000000     0.017590000000     0.513470000000    -0.303325   
O20      O      0.012150000000     0.984060000000     0.422640000000    -0.301485   
O21      O      0.976640000000     0.927620000000     0.509950000000    -0.301526   
O22      O      0.923410000000     0.018090000000     0.477270000000    -0.300195   
O23      O      0.012960000000     0.929610000000     0.474400000000    -0.299388   
O24      O      0.922760000000     0.980690000000     0.511700000000    -0.301869   
O25      O      0.976140000000     0.978980000000     0.565360000000    -0.301897   
O26      O      0.012100000000     0.015390000000     0.566370000000    -0.302732   
O27      O      0.998520000000     0.490700000000     0.995640000000    -0.368186   
O28      O      0.019970000000     0.420800000000     0.976910000000    -0.299835   
O29      O      0.982240000000     0.471830000000     0.067100000000    -0.301892   
O30      O      0.068940000000     0.511920000000     0.013860000000    -0.301973   
O31      O      0.985000000000     0.418300000000     0.013750000000    -0.3018     
O32      O      0.070450000000     0.476270000000     0.977200000000    -0.302318   
O33      O      0.015180000000     0.510980000000     0.066580000000    -0.302234   
O34      O      0.976610000000     0.560570000000     0.977230000000    -0.300057   
O35      O      0.928670000000     0.468400000000     0.014520000000    -0.298768   
O36      O      0.013510000000     0.563210000000     0.012120000000    -0.301423   
O37      O      0.925960000000     0.504840000000     0.979130000000    -0.302257   
O38      O      0.978000000000     0.507240000000     0.924750000000    -0.302575   
O39      O      0.016900000000     0.474040000000     0.923950000000    -0.301735   
O40      O      0.996200000000     0.499800000000     0.495610000000    -0.368147   
O41      O      0.981790000000     0.427730000000     0.514040000000    -0.301825   
O42      O      0.012440000000     0.483300000000     0.423480000000    -0.301391   
O43      O      0.923690000000     0.515130000000     0.480130000000    -0.301943   
O44      O      0.015740000000     0.429450000000     0.476190000000    -0.299136   
O45      O      0.926470000000     0.478760000000     0.515560000000    -0.299593   
O46      O      0.975250000000     0.517950000000     0.425300000000    -0.299296   
O47      O      0.013180000000     0.571400000000     0.512930000000    -0.302319   
O48      O      0.067390000000     0.483800000000     0.475260000000    -0.302305   
O49      O      0.974930000000     0.570660000000     0.478970000000    -0.30192    
O50      O      0.067390000000     0.519140000000     0.512240000000    -0.302857   
O51      O      0.015160000000     0.518660000000     0.566210000000    -0.299767   
O52      O      0.980900000000     0.481110000000     0.567550000000    -0.301605   
O53      O      0.499100000000     0.999020000000     0.998030000000    -0.367756   
O54      O      0.428590000000     0.980190000000     0.977730000000    -0.302583   
O55      O      0.479650000000     0.013480000000     0.070010000000    -0.302059   
O56      O      0.518450000000     0.927890000000     0.014180000000    -0.302903   
O57      O      0.427220000000     0.014370000000     0.015780000000    -0.301774   
O58      O      0.482640000000     0.927760000000     0.977670000000    -0.30229    
O59      O      0.516970000000     0.978960000000     0.068680000000    -0.300317   
O60      O      0.570200000000     0.019990000000     0.981830000000    -0.301851   
O61      O      0.478860000000     0.068710000000     0.018760000000    -0.300066   
O62      O      0.570560000000     0.981870000000     0.015920000000    -0.302598   
O63      O      0.514910000000     0.071680000000     0.983010000000    -0.301993   
O64      O      0.517950000000     0.019940000000     0.927940000000    -0.29919    
O65      O      0.483380000000     0.982660000000     0.925780000000    -0.302223   
O66      O      0.494450000000     0.997450000000     0.498090000000    -0.367534   
O67      O      0.424520000000     0.018570000000     0.517460000000    -0.299758   
O68      O      0.474090000000     0.980490000000     0.427030000000    -0.302272   
O69      O      0.514710000000     0.067700000000     0.479140000000    -0.30028    
O70      O      0.422000000000     0.982700000000     0.481510000000    -0.30207    
O71      O      0.479680000000     0.069730000000     0.515920000000    -0.301926   
O72      O      0.512280000000     0.014490000000     0.426520000000    -0.30295    
O73      O      0.565250000000     0.976410000000     0.515230000000    -0.302689   
O74      O      0.473020000000     0.927370000000     0.480100000000    -0.299864   
O75      O      0.565960000000     0.012760000000     0.479240000000    -0.303002   
O76      O      0.509770000000     0.925190000000     0.515240000000    -0.301953   
O77      O      0.512620000000     0.978290000000     0.569100000000    -0.30216    
O78      O      0.478630000000     0.016540000000     0.569520000000    -0.302461   
O79      O      0.498620000000     0.498990000000     0.999320000000    -0.367973   
O80      O      0.428510000000     0.520230000000     0.981230000000    -0.300109   
O81      O      0.478250000000     0.428210000000     0.016600000000    -0.301721   
O82      O      0.515120000000     0.481470000000     0.927250000000    -0.302461   
O83      O      0.426120000000     0.482970000000     0.015730000000    -0.30148    
O84      O      0.481490000000     0.519560000000     0.928870000000    -0.300553   
O85      O      0.514160000000     0.427590000000     0.980130000000    -0.302655   
O86      O      0.570610000000     0.513560000000     0.017670000000    -0.301967   
O87      O      0.478660000000     0.481300000000     0.070140000000    -0.302614   
O88      O      0.569040000000     0.478880000000     0.980100000000    -0.302839   
O89      O      0.517040000000     0.515140000000     0.070820000000    -0.302418   
O90      O      0.519850000000     0.569060000000     0.018600000000    -0.299721   
O91      O      0.483630000000     0.571480000000     0.983020000000    -0.302778   
O92      O      0.496200000000     0.497490000000     0.499360000000    -0.367365   
O93      O      0.513940000000     0.426120000000     0.517620000000    -0.30305    
O94      O      0.423910000000     0.480360000000     0.483780000000    -0.302266   
O95      O      0.480350000000     0.516230000000     0.570940000000    -0.303283   
O96      O      0.476440000000     0.426280000000     0.482820000000    -0.302519   
O97      O      0.516170000000     0.479750000000     0.570310000000    -0.30339    
O98      O      0.425820000000     0.516730000000     0.519240000000    -0.300382   
O99      O      0.514160000000     0.568620000000     0.479660000000    -0.30192    
O100     O      0.475630000000     0.478870000000     0.429260000000    -0.300191   
O101     O      0.479580000000     0.568850000000     0.517360000000    -0.303154   
O102     O      0.512120000000     0.514220000000     0.427080000000    -0.301873   
O103     O      0.567150000000     0.514830000000     0.479010000000    -0.30207    
O104     O      0.567570000000     0.478940000000     0.515500000000    -0.303214   
S1       S      0.451470000000     0.541640000000     0.878380000000    -0.00485002 
S2       S      0.447210000000     0.454420000000     0.378990000000    -0.00679894 
S3       S      0.439410000000     0.877290000000     0.462300000000    -0.00686983 
S4       S      0.537390000000     0.118140000000     0.449500000000    -0.00633472 
S5       S      0.547890000000     0.619420000000     0.043570000000    -0.00636876 
S6       S      0.451880000000     0.118480000000     0.045770000000    -0.00680528 
S7       S      0.550410000000     0.039530000000     0.877690000000    -0.00706846 
S8       S      0.533750000000     0.944910000000     0.118870000000    -0.00677102 
S9       S      0.876460000000     0.450140000000     0.540490000000    -0.00676786 
S10      S      0.375280000000     0.537840000000     0.550070000000    -0.00659579 
S11      S      0.878730000000     0.434710000000     0.032960000000    -0.00719238 
S12      S      0.378570000000     0.542480000000     0.950410000000    -0.00460097 
S13      S      0.033920000000     0.550380000000     0.617080000000    -0.00607733 
S14      S      0.950240000000     0.545150000000     0.374500000000    -0.00660962 
S15      S      0.039050000000     0.879170000000     0.447800000000    -0.00628821 
S16      S      0.048200000000     0.379100000000     0.456920000000    -0.00683816 
S17      S      0.872160000000     0.044280000000     0.452570000000    -0.00430564 
S18      S      0.374300000000     0.045760000000     0.543530000000    -0.00652257 
S19      S      0.952940000000     0.610560000000     0.947540000000    -0.00711175 
S20      S      0.051580000000     0.370960000000     0.955430000000    -0.00639975 
S21      S      0.877210000000     0.947070000000     0.949080000000    -0.00699174 
S22      S      0.119850000000     0.938550000000     0.033320000000    -0.00640122 
S23      S      0.045740000000     0.035590000000     0.873860000000    -0.00615729 
S24      S      0.949480000000     0.045230000000     0.373350000000    -0.004496   
Zn1      Zn     0.973800000000     0.965120000000     0.967400000000     0.452968   
Zn2      Zn     0.972190000000     0.017000000000     0.019760000000     0.453079   
Zn3      Zn     0.023890000000     0.964350000000     0.021610000000     0.454581   
Zn4      Zn     0.026510000000     0.016580000000     0.969850000000     0.454112   
Zn5      Zn     0.020180000000     0.025170000000     0.521610000000     0.453693   
Zn6      Zn     0.968360000000     0.026580000000     0.469540000000     0.456003   
Zn7      Zn     0.020590000000     0.974960000000     0.467630000000     0.454241   
Zn8      Zn     0.968140000000     0.972550000000     0.519730000000     0.4507     
Zn9      Zn     0.025670000000     0.466290000000     0.969110000000     0.45429    
Zn10     Zn     0.974400000000     0.463010000000     0.021970000000     0.453292   
Zn11     Zn     0.023310000000     0.518470000000     0.021290000000     0.45264    
Zn12     Zn     0.970510000000     0.515040000000     0.970030000000     0.454283   
Zn13     Zn     0.972130000000     0.472600000000     0.522460000000     0.453207   
Zn14     Zn     0.022140000000     0.474890000000     0.468320000000     0.454091   
Zn15     Zn     0.968270000000     0.525180000000     0.470800000000     0.453338   
Zn16     Zn     0.022250000000     0.526460000000     0.520930000000     0.455334   
Zn17     Zn     0.474150000000     0.973160000000     0.970540000000     0.451799   
Zn18     Zn     0.472050000000     0.023130000000     0.024950000000     0.454181   
Zn19     Zn     0.525560000000     0.972830000000     0.023420000000     0.455837   
Zn20     Zn     0.524770000000     0.026990000000     0.973510000000     0.452546   
Zn21     Zn     0.470120000000     0.024830000000     0.524480000000     0.453755   
Zn22     Zn     0.466660000000     0.972800000000     0.472430000000     0.45394    
Zn23     Zn     0.521090000000     0.022300000000     0.471550000000     0.455122   
Zn24     Zn     0.519770000000     0.970040000000     0.523690000000     0.451617   
Zn25     Zn     0.473900000000     0.526860000000     0.974050000000     0.456509   
Zn26     Zn     0.471090000000     0.473630000000     0.024720000000     0.451786   
Zn27     Zn     0.523480000000     0.472560000000     0.972360000000     0.452323   
Zn28     Zn     0.525790000000     0.523420000000     0.025830000000     0.454266   
Zn29     Zn     0.522670000000     0.471310000000     0.524940000000     0.453265   
Zn30     Zn     0.468800000000     0.471510000000     0.474640000000     0.454137   
Zn31     Zn     0.471260000000     0.523970000000     0.525970000000     0.455238   
Zn32     Zn     0.521680000000     0.523080000000     0.472000000000     0.450806   


