data_structure

_audit_creation_method RASPA-1.0
_audit_creation_date 2023-5-19
_audit_author_name 'Poobodin Mano'

_cell_length_a    43.2272
_cell_length_b    43.2235
_cell_length_c    43.2228
_cell_angle_alpha 90
_cell_angle_beta  90
_cell_angle_gamma 90
_cell_volume      80758.8

_symmetry_cell_setting          triclinic
_symmetry_space_group_name_Hall 'P 1'
_symmetry_space_group_name_H-M  'P 1'
_symmetry_Int_Tables_number     1

_symmetry_equiv_pos_as_xyz 'x,y,z'

loop_
_atom_site_label
_atom_site_type_symbol
_atom_site_fract_x
_atom_site_fract_y
_atom_site_fract_z
_atom_site_charge
C1       C      0.998330000000     0.998920000000     0.082110000000     0.369312   
C2       C      0.085120000000     0.000090000000     0.998960000000     0.376671   
C3       C      0.000720000000     0.912500000000     0.996040000000     0.370364   
C4       C      0.000990000000     0.998360000000     0.910080000000     0.369181   
C5       C      0.996180000000     0.084570000000     0.995250000000     0.367467   
C6       C      0.913010000000     0.995280000000     0.994800000000     0.376346   
C7       C      0.994450000000     0.996770000000     0.410040000000     0.376408   
C8       C      0.082260000000     0.000160000000     0.495230000000     0.371645   
C9       C      0.993930000000     0.083790000000     0.496980000000     0.37699    
C10      C      0.997860000000     0.995530000000     0.582070000000     0.376978   
C11      C      0.999070000000     0.911690000000     0.496030000000     0.378643   
C12      C      0.909980000000     0.996830000000     0.497250000000     0.376568   
C13      C      0.996980000000     0.412440000000     0.990440000000     0.376527   
C14      C      0.911240000000     0.498620000000     0.996700000000     0.369648   
C15      C      0.999860000000     0.496270000000     0.080200000000     0.367817   
C16      C      0.996190000000     0.584560000000     0.995320000000     0.37672    
C17      C      0.995380000000     0.501480000000     0.908200000000     0.378802   
C18      C      0.083330000000     0.497770000000     0.991850000000     0.376984   
C19      C      0.998500000000     0.411720000000     0.493570000000     0.368313   
C20      C      0.001480000000     0.499330000000     0.408110000000     0.378178   
C21      C      0.912790000000     0.497570000000     0.493100000000     0.368869   
C22      C      0.998230000000     0.583740000000     0.494590000000     0.369558   
C23      C      0.084970000000     0.497620000000     0.495860000000     0.369595   
C24      C      0.998170000000     0.497400000000     0.580330000000     0.368978   
C25      C      0.413030000000     0.998970000000     0.999870000000     0.367927   
C26      C      0.500130000000     0.997780000000     0.085590000000     0.368382   
C27      C      0.498160000000     0.911530000000     0.000180000000     0.371153   
C28      C      0.585130000000     0.998010000000     0.999090000000     0.367951   
C29      C      0.498870000000     0.083640000000     0.998370000000     0.368466   
C30      C      0.499710000000     0.994890000000     0.913510000000     0.377305   
C31      C      0.410120000000     0.999770000000     0.498700000000     0.377057   
C32      C      0.495090000000     0.997370000000     0.413600000000     0.377419   
C33      C      0.498970000000     0.082300000000     0.501330000000     0.378535   
C34      C      0.582170000000     0.994090000000     0.499210000000     0.369455   
C35      C      0.493810000000     0.910100000000     0.499440000000     0.368866   
C36      C      0.496400000000     0.995650000000     0.585600000000     0.369586   
C37      C      0.411290000000     0.497130000000     0.996580000000     0.369144   
C38      C      0.498690000000     0.411570000000     0.000960000000     0.378376   
C39      C      0.497980000000     0.495080000000     0.911420000000     0.369745   
C40      C      0.583410000000     0.500160000000     0.995520000000     0.377691   
C41      C      0.497970000000     0.498520000000     0.083550000000     0.370597   
C42      C      0.494850000000     0.583560000000     0.997420000000     0.376945   
C43      C      0.412810000000     0.492660000000     0.500920000000     0.378346   
C44      C      0.503380000000     0.494950000000     0.583410000000     0.378452   
C45      C      0.500350000000     0.409910000000     0.495680000000     0.370158   
C46      C      0.584740000000     0.496850000000     0.492460000000     0.378249   
C47      C      0.496870000000     0.582060000000     0.500870000000     0.378331   
C48      C      0.494580000000     0.499400000000     0.411500000000     0.377905   
C49      C      0.526020000000     0.477000000000     0.664020000000    -0.114458   
C50      C      0.478810000000     0.512660000000     0.862780000000     0.0743685  
C51      C      0.518670000000     0.475020000000     0.864390000000     0.0750005  
C52      C      0.479080000000     0.512160000000     0.830460000000    -0.0875847  
C53      C      0.473170000000     0.491770000000     0.763150000000    -0.0338     
C54      C      0.474020000000     0.491670000000     0.730830000000    -0.0298733  
C55      C      0.500700000000     0.492370000000     0.780400000000    -0.00218793 
C56      C      0.519740000000     0.474160000000     0.832100000000    -0.0870915  
C57      C      0.502440000000     0.492410000000     0.714970000000    -0.00747677 
C58      C      0.481780000000     0.510500000000     0.663860000000    -0.0947348  
C59      C      0.529990000000     0.492920000000     0.732310000000    -0.0293643  
C60      C      0.482860000000     0.511100000000     0.631630000000     0.0805787  
C61      C      0.527160000000     0.478500000000     0.631580000000     0.168654   
C62      C      0.529120000000     0.492780000000     0.764630000000    -0.0332196  
C63      C      0.499790000000     0.492840000000     0.814740000000     0.0512803  
C64      C      0.503290000000     0.493100000000     0.680520000000     0.0660772  
C65      C      0.472330000000     0.483590000000     0.330480000000    -0.114895   
C66      C      0.518600000000     0.516920000000     0.131330000000     0.0738905  
C67      C      0.477500000000     0.480610000000     0.131490000000     0.0753164  
C68      C      0.518750000000     0.517520000000     0.163660000000    -0.0886998  
C69      C      0.524640000000     0.499670000000     0.231770000000    -0.0334463  
C70      C      0.523930000000     0.499890000000     0.264120000000    -0.0302921  
C71      C      0.497000000000     0.500110000000     0.214640000000    -0.00268825 
C72      C      0.476900000000     0.480790000000     0.163780000000    -0.0874817  
C73      C      0.495570000000     0.500660000000     0.280060000000    -0.00739729 
C74      C      0.515900000000     0.517980000000     0.331630000000    -0.0945797  
C75      C      0.467960000000     0.501400000000     0.262860000000    -0.0300893  
C76      C      0.514730000000     0.517710000000     0.363880000000     0.0796184  
C77      C      0.471130000000     0.484160000000     0.362920000000     0.169209   
C78      C      0.468670000000     0.501050000000     0.230550000000    -0.0331457  
C79      C      0.497620000000     0.499440000000     0.180280000000     0.0513785  
C80      C      0.494740000000     0.500590000000     0.314480000000     0.0658705  
C81      C      0.478290000000     0.662250000000     0.524160000000    -0.114919   
C82      C      0.512810000000     0.862000000000     0.518490000000     0.0730288  
C83      C      0.473110000000     0.862490000000     0.480660000000     0.0731251  
C84      C      0.512620000000     0.829710000000     0.518890000000    -0.0888712  
C85      C      0.488770000000     0.762110000000     0.472350000000    -0.0337466  
C86      C      0.489050000000     0.729760000000     0.472610000000    -0.0303445  
C87      C      0.491780000000     0.778920000000     0.500040000000    -0.0028299  
C88      C      0.472320000000     0.830150000000     0.480500000000    -0.0877948  
C89      C      0.492300000000     0.713450000000     0.500580000000    -0.00779344 
C90      C      0.509910000000     0.662760000000     0.478520000000    -0.0954391  
C91      C      0.495080000000     0.730280000000     0.528280000000    -0.0301544  
C92      C      0.511180000000     0.630530000000     0.479550000000     0.0795104  
C93      C      0.480340000000     0.629850000000     0.525130000000     0.168428   
C94      C      0.494800000000     0.762590000000     0.528020000000    -0.0334542  
C95      C      0.492200000000     0.813330000000     0.499790000000     0.0506832  
C96      C      0.493220000000     0.679050000000     0.500890000000     0.0657388  
C97      C      0.482330000000     0.163920000000     0.520900000000    -0.11563    
C98      C      0.521570000000     0.362040000000     0.512980000000     0.0749597  
C99      C      0.479770000000     0.362090000000     0.477450000000     0.0758733  
C100     C      0.522030000000     0.329730000000     0.513020000000    -0.0873014  
C101     C      0.528300000000     0.262170000000     0.493350000000    -0.0338488  
C102     C      0.528110000000     0.229840000000     0.494010000000    -0.0300109  
C103     C      0.500480000000     0.278890000000     0.495370000000    -0.00204427 
C104     C      0.479400000000     0.329780000000     0.477200000000    -0.0862091  
C105     C      0.500120000000     0.213570000000     0.497000000000    -0.00822614 
C106     C      0.517970000000     0.161670000000     0.478400000000    -0.0968542  
C107     C      0.472300000000     0.230280000000     0.498960000000    -0.0295495  
C108     C      0.517570000000     0.129460000000     0.480300000000     0.0793103  
C109     C      0.482900000000     0.131530000000     0.522990000000     0.170969   
C110     C      0.472470000000     0.262600000000     0.497990000000    -0.0329052  
C111     C      0.500700000000     0.313220000000     0.495110000000     0.0516321  
C112     C      0.499970000000     0.179270000000     0.498590000000     0.0668169  
C113     C      0.472790000000     0.664550000000     0.980790000000    -0.114847   
C114     C      0.518230000000     0.863320000000     0.018010000000     0.0731759  
C115     C      0.476980000000     0.864040000000     0.981870000000     0.0741606  
C116     C      0.518260000000     0.830990000000     0.017930000000    -0.0876282  
C117     C      0.524380000000     0.763530000000     0.998220000000    -0.0341339  
C118     C      0.523900000000     0.731190000000     0.997690000000    -0.0307012  
C119     C      0.496640000000     0.780460000000     0.999180000000    -0.00236983 
C120     C      0.476280000000     0.831760000000     0.981370000000    -0.0870653  
C121     C      0.495650000000     0.715040000000     0.998210000000    -0.00776041 
C122     C      0.516360000000     0.663580000000     0.015180000000    -0.0956463  
C123     C      0.467920000000     0.732030000000     0.999300000000    -0.0308495  
C124     C      0.515280000000     0.631340000000     0.014970000000     0.0787838  
C125     C      0.471700000000     0.632100000000     0.981390000000     0.167507   
C126     C      0.468410000000     0.764340000000     0.999700000000    -0.0342912  
C127     C      0.497090000000     0.814820000000     0.999500000000     0.0498917  
C128     C      0.495090000000     0.680630000000     0.997850000000     0.064536   
C129     C      0.482160000000     0.330660000000     0.023230000000    -0.115121   
C130     C      0.516550000000     0.131550000000     0.977440000000     0.0721621  
C131     C      0.480620000000     0.131430000000     0.018890000000     0.073182   
C132     C      0.516740000000     0.163880000000     0.977180000000    -0.0892582  
C133     C      0.498000000000     0.231710000000     0.971190000000    -0.0335211  
C134     C      0.497950000000     0.264050000000     0.971760000000    -0.0319206  
C135     C      0.498900000000     0.214710000000     0.998890000000    -0.00445879 
C136     C      0.480410000000     0.163720000000     0.019370000000    -0.0887972  
C137     C      0.498930000000     0.280120000000     0.000040000000    -0.00695347 
C138     C      0.516150000000     0.331520000000     0.979340000000    -0.0963882  
C139     C      0.500050000000     0.263050000000     0.027720000000    -0.0310323  
C140     C      0.516110000000     0.363770000000     0.980480000000     0.0782472  
C141     C      0.482950000000     0.363100000000     0.024390000000     0.167782   
C142     C      0.499960000000     0.230740000000     0.027150000000    -0.0325017  
C143     C      0.498650000000     0.180350000000     0.998410000000     0.050087   
C144     C      0.498890000000     0.314530000000     0.000720000000     0.0659141  
C145     C      0.483430000000     0.971380000000     0.832970000000    -0.115615   
C146     C      0.477420000000     0.014860000000     0.633700000000     0.0753175  
C147     C      0.516450000000     0.976340000000     0.633180000000     0.073687   
C148     C      0.477530000000     0.015130000000     0.666010000000    -0.0858584  
C149     C      0.495390000000     0.023130000000     0.733520000000    -0.0335984  
C150     C      0.495750000000     0.022870000000     0.765860000000    -0.0295924  
C151     C      0.497910000000     0.995380000000     0.716720000000    -0.00282788 
C152     C      0.517190000000     0.976060000000     0.665470000000    -0.0885721  
C153     C      0.498620000000     0.994860000000     0.782140000000    -0.00891561 
C154     C      0.515430000000     0.016760000000     0.833180000000    -0.0965376  
C155     C      0.501210000000     0.967140000000     0.765330000000    -0.0301877  
C156     C      0.515800000000     0.015830000000     0.865440000000     0.0784841  
C157     C      0.484610000000     0.970490000000     0.865390000000     0.167274   
C158     C      0.500810000000     0.967390000000     0.733020000000    -0.033666   
C159     C      0.497560000000     0.995570000000     0.682320000000     0.0504979  
C160     C      0.498960000000     0.994500000000     0.816540000000     0.0650636  
C161     C      0.473310000000     0.981620000000     0.332430000000    -0.115451   
C162     C      0.519170000000     0.978070000000     0.133500000000     0.0721453  
C163     C      0.481470000000     0.017900000000     0.133390000000     0.0729299  
C164     C      0.519310000000     0.977740000000     0.165840000000    -0.0889896  
C165     C      0.526800000000     0.994210000000     0.233920000000    -0.0340999  
C166     C      0.526070000000     0.994020000000     0.266270000000    -0.0309784  
C167     C      0.499360000000     0.997530000000     0.216750000000    -0.00390956 
C168     C      0.481060000000     0.018190000000     0.165680000000    -0.0887807  
C169     C      0.497870000000     0.997100000000     0.282190000000    -0.00872431 
C170     C      0.519110000000     0.012970000000     0.333820000000    -0.0961422  
C171     C      0.470450000000     0.000430000000     0.265000000000    -0.030091   
C172     C      0.517480000000     0.013170000000     0.366060000000     0.0786587  
C173     C      0.471740000000     0.982600000000     0.364830000000     0.167632   
C174     C      0.471190000000     0.000600000000     0.232710000000    -0.0330278  
C175     C      0.500010000000     0.997870000000     0.182350000000     0.0499392  
C176     C      0.496960000000     0.996980000000     0.316590000000     0.0648692  
C177     C      0.665110000000     0.514910000000     0.469200000000    -0.114357   
C178     C      0.864650000000     0.479420000000     0.513020000000     0.0728485  
C179     C      0.865210000000     0.516120000000     0.472260000000     0.0730779  
C180     C      0.832330000000     0.479450000000     0.513160000000    -0.0890955  
C181     C      0.764940000000     0.498930000000     0.519900000000    -0.033762   
C182     C      0.732610000000     0.499070000000     0.519650000000    -0.0305041  
C183     C      0.781690000000     0.498400000000     0.492040000000    -0.0029828  
C184     C      0.832910000000     0.516560000000     0.471660000000    -0.0880339  
C185     C      0.716240000000     0.498540000000     0.491530000000    -0.00757129 
C186     C      0.665360000000     0.480420000000     0.512690000000    -0.0946189  
C187     C      0.733050000000     0.498010000000     0.463660000000    -0.0301918  
C188     C      0.633120000000     0.480030000000     0.512040000000     0.0796393  
C189     C      0.632640000000     0.513690000000     0.468520000000     0.168157   
C190     C      0.765380000000     0.498020000000     0.463910000000    -0.0335472  
C191     C      0.816060000000     0.498150000000     0.492300000000     0.0507501  
C192     C      0.681810000000     0.498160000000     0.491280000000     0.0655521  
C193     C      0.331720000000     0.471720000000     0.483880000000    -0.115159   
C194     C      0.132510000000     0.517730000000     0.515320000000     0.0729934  
C195     C      0.133120000000     0.477230000000     0.478360000000     0.0731489  
C196     C      0.164810000000     0.517970000000     0.516220000000    -0.0890089  
C197     C      0.232200000000     0.501110000000     0.526550000000    -0.0336318  
C198     C      0.264530000000     0.500490000000     0.527240000000    -0.030639   
C199     C      0.216140000000     0.497160000000     0.498520000000    -0.00316323 
C200     C      0.165420000000     0.476800000000     0.478760000000    -0.0889869  
C201     C      0.281540000000     0.495800000000     0.499930000000    -0.00763668 
C202     C      0.333020000000     0.514970000000     0.518680000000    -0.0954756  
C203     C      0.265530000000     0.492060000000     0.471880000000    -0.0305059  
C204     C      0.365250000000     0.513270000000     0.518920000000     0.0795998  
C205     C      0.364110000000     0.469940000000     0.485010000000     0.171101   
C206     C      0.233220000000     0.492790000000     0.471170000000    -0.0330291  
C207     C      0.181720000000     0.497340000000     0.497810000000     0.0508864  
C208     C      0.315870000000     0.494330000000     0.500700000000     0.0662874  
C209     C      0.664460000000     0.484660000000     0.973290000000    -0.115249   
C210     C      0.863860000000     0.516870000000     0.018330000000     0.0756026  
C211     C      0.862950000000     0.481010000000     0.976830000000     0.0744621  
C212     C      0.831540000000     0.517640000000     0.018920000000    -0.0864585  
C213     C      0.763300000000     0.500170000000     0.025240000000    -0.0333611  
C214     C      0.730950000000     0.500490000000     0.024770000000    -0.0294927  
C215     C      0.780220000000     0.500910000000     0.997480000000    -0.0028892  
C216     C      0.830670000000     0.481380000000     0.976670000000    -0.0875641  
C217     C      0.714820000000     0.501690000000     0.996530000000    -0.00880361 
C218     C      0.663240000000     0.518510000000     0.017280000000    -0.0958501  
C219     C      0.731830000000     0.502870000000     0.968810000000    -0.0298929  
C220     C      0.630980000000     0.518180000000     0.016100000000     0.0788545  
C221     C      0.632040000000     0.485170000000     0.972080000000     0.167734   
C222     C      0.764120000000     0.502400000000     0.969280000000    -0.0333989  
C223     C      0.814560000000     0.499920000000     0.997780000000     0.0506556  
C224     C      0.680410000000     0.501470000000     0.995860000000     0.0649759  
C225     C      0.164360000000     0.514980000000     0.970520000000    -0.115187   
C226     C      0.363140000000     0.479050000000     0.016570000000     0.0745652  
C227     C      0.363740000000     0.515410000000     0.975510000000     0.0748815  
C228     C      0.330820000000     0.478930000000     0.016540000000    -0.0868904  
C229     C      0.263140000000     0.497910000000     0.022490000000    -0.0331171  
C230     C      0.230800000000     0.498110000000     0.021860000000    -0.0295797  
C231     C      0.280210000000     0.497350000000     0.994820000000    -0.00293211 
C232     C      0.331450000000     0.515720000000     0.974750000000    -0.0870892  
C233     C      0.214790000000     0.497660000000     0.993530000000    -0.00856384 
C234     C      0.163280000000     0.480220000000     0.013790000000    -0.0958049  
C235     C      0.231920000000     0.496930000000     0.965870000000    -0.0298439  
C236     C      0.131040000000     0.480260000000     0.012490000000     0.0791391  
C237     C      0.131930000000     0.514210000000     0.969190000000     0.168509   
C238     C      0.264230000000     0.496850000000     0.966510000000    -0.0332446  
C239     C      0.314570000000     0.497350000000     0.995410000000     0.0505112  
C240     C      0.180380000000     0.497820000000     0.992780000000     0.065217   
C241     C      0.012990000000     0.522080000000     0.827080000000    -0.114507   
C242     C      0.979320000000     0.477030000000     0.628000000000     0.0723913  
C243     C      0.016590000000     0.517250000000     0.628360000000     0.0731386  
C244     C      0.978900000000     0.476570000000     0.660310000000    -0.0891     
C245     C      0.969460000000     0.493180000000     0.727830000000    -0.0335772  
C246     C      0.969110000000     0.493680000000     0.760160000000    -0.0306014  
C247     C      0.997350000000     0.497030000000     0.711510000000    -0.00368263 
C248     C      0.016660000000     0.517470000000     0.660660000000    -0.0886019  
C249     C      0.996600000000     0.498180000000     0.776920000000    -0.00798527 
C250     C      0.978280000000     0.478760000000     0.828390000000    -0.0947946  
C251     C      0.024500000000     0.501860000000     0.760650000000    -0.0299606  
C252     C      0.978010000000     0.480470000000     0.860600000000     0.0804179  
C253     C      0.011840000000     0.523870000000     0.859480000000     0.171948   
C254     C      0.024890000000     0.501220000000     0.728330000000    -0.0325867  
C255     C      0.997680000000     0.496970000000     0.677090000000     0.0502445  
C256     C      0.996130000000     0.499490000000     0.811240000000     0.0660778  
C257     C      0.986690000000     0.521080000000     0.326730000000    -0.116069   
C258     C      0.019250000000     0.475260000000     0.127460000000     0.0728364  
C259     C      0.983110000000     0.516510000000     0.128630000000     0.0730628  
C260     C      0.020420000000     0.474850000000     0.159790000000    -0.0891466  
C261     C      0.002960000000     0.468610000000     0.228210000000    -0.0342407  
C262     C      0.003000000000     0.469180000000     0.260570000000    -0.030515   
C263     C      0.003870000000     0.496310000000     0.211210000000    -0.00313062 
C264     C      0.983900000000     0.516860000000     0.160890000000    -0.0888339  
C265     C      0.004090000000     0.497470000000     0.276640000000    -0.00846838 
C266     C      0.020030000000     0.476730000000     0.328520000000    -0.0968556  
C267     C      0.005570000000     0.525120000000     0.259540000000    -0.0300269  
C268     C      0.019370000000     0.478080000000     0.360770000000     0.0780081  
C269     C      0.986890000000     0.522470000000     0.359160000000     0.16715    
C270     C      0.005370000000     0.524550000000     0.227250000000    -0.0336401  
C271     C      0.002740000000     0.495940000000     0.176880000000     0.051353   
C272     C      0.003440000000     0.498270000000     0.311060000000     0.0660318  
C273     C      0.022470000000     0.831080000000     0.479710000000    -0.114293   
C274     C      0.979100000000     0.631570000000     0.474850000000     0.0745102  
C275     C      0.016750000000     0.631590000000     0.514730000000     0.0741005  
C276     C      0.978770000000     0.663880000000     0.474570000000    -0.0871997  
C277     C      0.970450000000     0.731670000000     0.491420000000    -0.0334992  
C278     C      0.970750000000     0.764010000000     0.491440000000    -0.0299794  
C279     C      0.998120000000     0.714870000000     0.494660000000    -0.00290102 
C280     C      0.016960000000     0.663880000000     0.515080000000    -0.0881896  
C281     C      0.998720000000     0.780300000000     0.494680000000    -0.00798896 
C282     C      0.976610000000     0.831380000000     0.511010000000    -0.0949979  
C283     C      0.026370000000     0.763480000000     0.497910000000    -0.0293477  
C284     C      0.977630000000     0.863620000000     0.511450000000     0.0807064  
C285     C      0.023430000000     0.863500000000     0.480930000000     0.169258   
C286     C      0.026080000000     0.731170000000     0.497860000000    -0.0325955  
C287     C      0.997890000000     0.680470000000     0.494800000000     0.0507318  
C288     C      0.999090000000     0.814690000000     0.494900000000     0.0658573  
C289     C      0.971620000000     0.164490000000     0.479950000000    -0.115647   
C290     C      0.017180000000     0.363640000000     0.473940000000     0.072755   
C291     C      0.979050000000     0.364100000000     0.513350000000     0.072596   
C292     C      0.017180000000     0.331310000000     0.473750000000    -0.08845    
C293     C      0.024640000000     0.263460000000     0.491030000000    -0.0336825  
C294     C      0.024030000000     0.231110000000     0.491390000000    -0.0301947  
C295     C      0.997100000000     0.280570000000     0.493860000000    -0.00370749 
C296     C      0.978500000000     0.331820000000     0.513790000000    -0.089208   
C297     C      0.995870000000     0.215130000000     0.494550000000    -0.00863441 
C298     C      0.017270000000     0.163920000000     0.511560000000    -0.096341   
C299     C      0.968360000000     0.232260000000     0.497350000000    -0.0303359  
C300     C      0.015820000000     0.131680000000     0.512350000000     0.0790019  
C301     C      0.970200000000     0.132100000000     0.481580000000     0.169748   
C302     C      0.968960000000     0.264550000000     0.496960000000    -0.0334511  
C303     C      0.997650000000     0.314970000000     0.493800000000     0.0500175  
C304     C      0.995120000000     0.180740000000     0.495100000000     0.0654603  
C305     C      0.828110000000     0.017240000000     0.482560000000    -0.115175   
C306     C      0.629560000000     0.973730000000     0.518760000000     0.072838   
C307     C      0.630450000000     0.013450000000     0.480940000000     0.0735531  
C308     C      0.661850000000     0.973470000000     0.519870000000    -0.0892677  
C309     C      0.730140000000     0.966590000000     0.503350000000    -0.0337091  
C310     C      0.762480000000     0.967130000000     0.503580000000    -0.0302134  
C311     C      0.713160000000     0.994310000000     0.502480000000    -0.00366971 
C312     C      0.662740000000     0.013890000000     0.481590000000    -0.0886873  
C313     C      0.778540000000     0.995420000000     0.503020000000    -0.00816233 
C314     C      0.830770000000     0.975400000000     0.518890000000    -0.0954645  
C315     C      0.761500000000     0.023130000000     0.502780000000    -0.0296567  
C316     C      0.862990000000     0.976180000000     0.516770000000     0.0795229  
C317     C      0.860460000000     0.017470000000     0.480510000000     0.173481   
C318     C      0.729200000000     0.022580000000     0.502450000000    -0.0327117  
C319     C      0.678830000000     0.993840000000     0.501300000000     0.0505618  
C320     C      0.812910000000     0.996100000000     0.501680000000     0.066572   
C321     C      0.329430000000     0.023310000000     0.514570000000    -0.115136   
C322     C      0.130370000000     0.980610000000     0.476690000000     0.0747102  
C323     C      0.129810000000     0.021030000000     0.513780000000     0.0742898  
C324     C      0.162670000000     0.980390000000     0.476790000000    -0.0880596  
C325     C      0.229780000000     0.973040000000     0.497070000000    -0.0342054  
C326     C      0.262110000000     0.973060000000     0.497650000000    -0.0302795  
C327     C      0.213260000000     0.001020000000     0.496210000000    -0.00205678 
C328     C      0.162120000000     0.021570000000     0.514260000000    -0.0887811  
C329     C      0.278660000000     0.001070000000     0.497200000000    -0.00714201 
C330     C      0.329890000000     0.979410000000     0.480600000000    -0.0956666  
C331     C      0.262060000000     0.029050000000     0.496190000000    -0.0297171  
C332     C      0.362140000000     0.979940000000     0.481020000000     0.0802972  
C333     C      0.361880000000     0.023890000000     0.514130000000     0.169641   
C334     C      0.229750000000     0.029030000000     0.495810000000    -0.0334284  
C335     C      0.178930000000     0.001010000000     0.495730000000     0.051995   
C336     C      0.313080000000     0.001110000000     0.497640000000     0.0669594  
C337     C      0.975320000000     0.665660000000     0.012900000000    -0.113655   
C338     C      0.021010000000     0.864630000000     0.977510000000     0.0739629  
C339     C      0.980450000000     0.864680000000     0.014440000000     0.0752188  
C340     C      0.021200000000     0.832290000000     0.977190000000    -0.0888475  
C341     C      0.027490000000     0.764380000000     0.995880000000    -0.0326939  
C342     C      0.026840000000     0.732040000000     0.996060000000    -0.0300013  
C343     C      0.999830000000     0.781450000000     0.995440000000    -0.00393016 
C344     C      0.979900000000     0.832410000000     0.014520000000    -0.0875077  
C345     C      0.998500000000     0.716050000000     0.995660000000    -0.00738519 
C346     C      0.018740000000     0.664480000000     0.978330000000    -0.0931845  
C347     C      0.970850000000     0.733190000000     0.994940000000    -0.0300468  
C348     C      0.017300000000     0.632250000000     0.978310000000     0.0806288  
C349     C      0.973830000000     0.633240000000     0.012040000000     0.168844   
C350     C      0.971510000000     0.765490000000     0.994920000000    -0.0328518  
C351     C      0.000380000000     0.815800000000     0.995740000000     0.0520467  
C352     C      0.997690000000     0.681630000000     0.995840000000     0.0646018  
C353     C      0.978480000000     0.331880000000     0.968320000000    -0.114861   
C354     C      0.013450000000     0.133090000000     0.014920000000     0.0739842  
C355     C      0.976430000000     0.131700000000     0.974470000000     0.0723347  
C356     C      0.013010000000     0.165390000000     0.014790000000    -0.0867897  
C357     C      0.993190000000     0.232750000000     0.020710000000    -0.0337513  
C358     C      0.993330000000     0.265070000000     0.019970000000    -0.0301181  
C359     C      0.993700000000     0.215580000000     0.993110000000    -0.00357675 
C360     C      0.975600000000     0.164000000000     0.973590000000    -0.0887393  
C361     C      0.994150000000     0.280980000000     0.991590000000    -0.0087377  
C362     C      0.012660000000     0.332030000000     0.012060000000    -0.0952148  
C363     C      0.994590000000     0.263750000000     0.963980000000    -0.0304621  
C364     C      0.013360000000     0.364260000000     0.010890000000     0.0790221  
C365     C      0.980050000000     0.364300000000     0.967100000000     0.167075   
C366     C      0.994270000000     0.231430000000     0.964740000000    -0.0338765  
C367     C      0.994020000000     0.181240000000     0.993890000000     0.0492503  
C368     C      0.994900000000     0.315400000000     0.990800000000     0.0639348  
C369     C      0.832280000000     0.973130000000     0.012200000000    -0.114341   
C370     C      0.632800000000     0.018560000000     0.980430000000     0.0727958  
C371     C      0.633150000000     0.977850000000     0.017190000000     0.0730783  
C372     C      0.665110000000     0.018830000000     0.979810000000    -0.088422   
C373     C      0.733170000000     0.025180000000     0.997610000000    -0.034104   
C374     C      0.765510000000     0.024610000000     0.997070000000    -0.0304281  
C375     C      0.716160000000     0.997470000000     0.997310000000    -0.00368771 
C376     C      0.665440000000     0.977360000000     0.016960000000    -0.0883116  
C377     C      0.781560000000     0.996310000000     0.996070000000    -0.00873999 
C378     C      0.832790000000     0.016950000000     0.978130000000    -0.0959321  
C379     C      0.764460000000     0.968630000000     0.995520000000    -0.0306131  
C380     C      0.865040000000     0.015790000000     0.977810000000     0.0779667  
C381     C      0.864690000000     0.971920000000     0.011010000000     0.167413   
C382     C      0.732160000000     0.969200000000     0.996230000000    -0.0340598  
C383     C      0.681820000000     0.997960000000     0.998090000000     0.0491325  
C384     C      0.815970000000     0.995620000000     0.995630000000     0.0637428  
C385     C      0.165520000000     0.018550000000     0.021650000000    -0.114379   
C386     C      0.364890000000     0.981620000000     0.979320000000     0.0729474  
C387     C      0.365500000000     0.018500000000     0.019920000000     0.0739652  
C388     C      0.332600000000     0.982110000000     0.978790000000    -0.089029   
C389     C      0.265450000000     0.002220000000     0.971420000000    -0.0341119  
C390     C      0.233120000000     0.002470000000     0.971460000000    -0.0304592  
C391     C      0.282010000000     0.001600000000     0.999400000000    -0.00384704 
C392     C      0.333200000000     0.019400000000     0.020140000000    -0.088783   
C393     C      0.216590000000     0.001970000000     0.999490000000    -0.00893876 
C394     C      0.165680000000     0.984060000000     0.978140000000    -0.0969369  
C395     C      0.233210000000     0.001340000000     0.027460000000    -0.0297055  
C396     C      0.133440000000     0.983640000000     0.978880000000     0.0766913  
C397     C      0.133090000000     0.017280000000     0.022430000000     0.167142   
C398     C      0.265530000000     0.001250000000     0.027420000000    -0.0331073  
C399     C      0.316350000000     0.001090000000     0.999400000000     0.0507728  
C400     C      0.182170000000     0.001750000000     0.999570000000     0.0649138  
C401     C      0.984220000000     0.972200000000     0.663240000000    -0.114614   
C402     C      0.981170000000     0.016670000000     0.862000000000     0.0728801  
C403     C      0.022020000000     0.980080000000     0.862440000000     0.0728215  
C404     C      0.981010000000     0.016750000000     0.829700000000    -0.0890407  
C405     C      0.997560000000     0.025000000000     0.761950000000    -0.0339159  
C406     C      0.996980000000     0.024460000000     0.729620000000    -0.0313493  
C407     C      0.001560000000     0.997520000000     0.778910000000    -0.00348673 
C408     C      0.022470000000     0.979600000000     0.830120000000    -0.0890907  
C409     C      0.000340000000     0.996420000000     0.713480000000    -0.00714359 
C410     C      0.014950000000     0.018430000000     0.661840000000    -0.0950271  
C411     C      0.004470000000     0.968960000000     0.730440000000    -0.0309133  
C412     C      0.014400000000     0.017320000000     0.629600000000     0.0792947  
C413     C      0.984400000000     0.971200000000     0.630770000000     0.167567   
C414     C      0.005070000000     0.969510000000     0.762760000000    -0.033265   
C415     C      0.001750000000     0.998020000000     0.813310000000     0.0506107  
C416     C      0.999640000000     0.995810000000     0.679090000000     0.063404   
C417     C      0.970800000000     0.010810000000     0.329210000000    -0.114934   
C418     C      0.015950000000     0.019620000000     0.130110000000     0.0757536  
C419     C      0.980590000000     0.977700000000     0.129780000000     0.0742884  
C420     C      0.016060000000     0.019810000000     0.162430000000    -0.0858371  
C421     C      0.024790000000     0.003800000000     0.230300000000    -0.0326686  
C422     C      0.024240000000     0.003730000000     0.262650000000    -0.0286823  
C423     C      0.997590000000     0.998450000000     0.213260000000    -0.0028875  
C424     C      0.980280000000     0.977170000000     0.162070000000    -0.0872474  
C425     C      0.996490000000     0.998270000000     0.278710000000    -0.00854408 
C426     C      0.019490000000     0.984090000000     0.330100000000    -0.0951256  
C427     C      0.969320000000     0.992860000000     0.261640000000    -0.0294156  
C428     C      0.018040000000     0.983420000000     0.362340000000     0.0804372  
C429     C      0.969440000000     0.009180000000     0.361590000000     0.171519   
C430     C      0.969850000000     0.993040000000     0.229350000000    -0.0330987  
C431     C      0.998050000000     0.998450000000     0.178850000000     0.0502607  
C432     C      0.995800000000     0.998050000000     0.313110000000     0.0657428  
H1       H      0.534510000000     0.460120000000     0.876890000000     0.0406647  
H2       H      0.465220000000     0.524660000000     0.620050000000     0.0398256  
H3       H      0.550730000000     0.493660000000     0.777310000000     0.0453377  
H4       H      0.452360000000     0.490730000000     0.718270000000     0.0423106  
H5       H      0.464180000000     0.523930000000     0.675600000000     0.0615137  
H6       H      0.450920000000     0.491010000000     0.774670000000     0.0432315  
H7       H      0.543310000000     0.463590000000     0.676250000000     0.0803515  
H8       H      0.535900000000     0.458670000000     0.820820000000     0.0596701  
H9       H      0.463470000000     0.527200000000     0.817890000000     0.0589806  
H10      H      0.552280000000     0.494060000000     0.720930000000     0.0451954  
H11      H      0.462520000000     0.528110000000     0.873970000000     0.0373721  
H12      H      0.461030000000     0.465790000000     0.119730000000     0.0401209  
H13      H      0.532110000000     0.531180000000     0.375950000000     0.0405247  
H14      H      0.446990000000     0.501940000000     0.218010000000     0.0437922  
H15      H      0.545620000000     0.498890000000     0.276630000000     0.0433006  
H16      H      0.533290000000     0.531970000000     0.320230000000     0.0611852  
H17      H      0.546820000000     0.498580000000     0.220170000000     0.0431453  
H18      H      0.455310000000     0.470230000000     0.317840000000     0.0814378  
H19      H      0.460460000000     0.466130000000     0.175740000000     0.0599323  
H20      H      0.534990000000     0.532470000000     0.175520000000     0.0567527  
H21      H      0.445730000000     0.502650000000     0.274340000000     0.045042   
H22      H      0.535200000000     0.531450000000     0.119400000000     0.0325115  
H23      H      0.457250000000     0.874550000000     0.465430000000     0.0368566  
H24      H      0.524120000000     0.619140000000     0.461330000000     0.0368083  
H25      H      0.496800000000     0.774790000000     0.549810000000     0.0429909  
H26      H      0.486570000000     0.717500000000     0.450900000000     0.0423277  
H27      H      0.522300000000     0.674840000000     0.460400000000     0.0606479  
H28      H      0.486700000000     0.773950000000     0.450360000000     0.04304    
H29      H      0.465530000000     0.674260000000     0.542090000000     0.0805787  
H30      H      0.455900000000     0.818460000000     0.465610000000     0.0581892  
H31      H      0.528740000000     0.817690000000     0.533840000000     0.0566768  
H32      H      0.497990000000     0.718490000000     0.550200000000     0.0447836  
H33      H      0.529090000000     0.873620000000     0.533620000000     0.03236    
H34      H      0.462890000000     0.373970000000     0.463200000000     0.0450082  
H35      H      0.531460000000     0.116990000000     0.463540000000     0.0327394  
H36      H      0.450690000000     0.274870000000     0.499830000000     0.0461139  
H37      H      0.549920000000     0.217580000000     0.492700000000     0.0421817  
H38      H      0.531930000000     0.172700000000     0.460740000000     0.0597062  
H39      H      0.550210000000     0.274110000000     0.491070000000     0.0434489  
H40      H      0.469110000000     0.177130000000     0.537630000000     0.0822456  
H41      H      0.462710000000     0.317850000000     0.462810000000     0.0614916  
H42      H      0.538690000000     0.317770000000     0.527430000000     0.0591955  
H43      H      0.450370000000     0.218340000000     0.501060000000     0.0471073  
H44      H      0.538370000000     0.373870000000     0.527360000000     0.03785    
H45      H      0.460520000000     0.876170000000     0.967330000000     0.0401202  
H46      H      0.532670000000     0.619380000000     0.028530000000     0.0323117  
H47      H      0.446650000000     0.776720000000     0.000920000000     0.0441712  
H48      H      0.545660000000     0.718860000000     0.996420000000     0.0415289  
H49      H      0.533680000000     0.675040000000     0.029200000000     0.0584671  
H50      H      0.546490000000     0.775290000000     0.997380000000     0.0425317  
H51      H      0.455740000000     0.677130000000     0.967400000000     0.0804416  
H52      H      0.459770000000     0.820170000000     0.966500000000     0.059554   
H53      H      0.534530000000     0.818770000000     0.032560000000     0.056142   
H54      H      0.445770000000     0.720360000000     0.000330000000     0.0452145  
H55      H      0.534940000000     0.874880000000     0.032700000000     0.0322413  
H56      H      0.466110000000     0.119550000000     0.035540000000     0.0322517  
H57      H      0.529550000000     0.375700000000     0.962970000000     0.0362901  
H58      H      0.501180000000     0.218300000000     0.048870000000     0.0425964  
H59      H      0.496670000000     0.276460000000     0.950030000000     0.0418158  
H60      H      0.529930000000     0.320010000000     0.961860000000     0.0600032  
H61      H      0.496790000000     0.220010000000     0.949060000000     0.0418988  
H62      H      0.468860000000     0.318130000000     0.040390000000     0.0801262  
H63      H      0.465770000000     0.175560000000     0.035900000000     0.0569265  
H64      H      0.531400000000     0.175870000000     0.960760000000     0.0561089  
H65      H      0.501460000000     0.274640000000     0.049890000000     0.0445469  
H66      H      0.531070000000     0.119740000000     0.960740000000     0.0317755  
H67      H      0.532120000000     0.960900000000     0.621130000000     0.0323979  
H68      H      0.528540000000     0.034000000000     0.877150000000     0.0314088  
H69      H      0.502470000000     0.945560000000     0.720830000000     0.0429203  
H70      H      0.493450000000     0.044610000000     0.778110000000     0.0416743  
H71      H      0.528260000000     0.034760000000     0.821390000000     0.0585631  
H72      H      0.493470000000     0.045130000000     0.721690000000     0.0439874  
H73      H      0.470820000000     0.953540000000     0.820680000000     0.080436   
H74      H      0.533380000000     0.960880000000     0.677090000000     0.0565099  
H75      H      0.461660000000     0.030300000000     0.678090000000     0.0604502  
H76      H      0.503880000000     0.945190000000     0.777110000000     0.0441642  
H77      H      0.461470000000     0.030330000000     0.622050000000     0.0439573  
H78      H      0.466390000000     0.034040000000     0.121520000000     0.0320965  
H79      H      0.535550000000     0.025600000000     0.378240000000     0.0318953  
H80      H      0.449570000000     0.002840000000     0.220230000000     0.0425985  
H81      H      0.547570000000     0.991170000000     0.278810000000     0.0410952  
H82      H      0.537530000000     0.025630000000     0.322500000000     0.0587931  
H83      H      0.548940000000     0.992110000000     0.222360000000     0.0415856  
H84      H      0.455560000000     0.969340000000     0.319670000000     0.0801524  
H85      H      0.466140000000     0.034510000000     0.177460000000     0.0564037  
H86      H      0.534080000000     0.961390000000     0.177760000000     0.0562405  
H87      H      0.448380000000     0.003270000000     0.276500000000     0.0445393  
H88      H      0.534320000000     0.961960000000     0.121680000000     0.0320117  
H89      H      0.877280000000     0.530860000000     0.455950000000     0.037335   
H90      H      0.621660000000     0.466200000000     0.529570000000     0.040527   
H91      H      0.777620000000     0.497160000000     0.442070000000     0.0437904  
H92      H      0.720430000000     0.499960000000     0.541530000000     0.0431949  
H93      H      0.677290000000     0.466570000000     0.529830000000     0.0611662  
H94      H      0.776850000000     0.499680000000     0.541940000000     0.0426346  
H95      H      0.677200000000     0.528580000000     0.452010000000     0.0802146  
H96      H      0.821230000000     0.531600000000     0.455360000000     0.0586583  
H97      H      0.820200000000     0.464590000000     0.529270000000     0.0565596  
H98      H      0.721240000000     0.497010000000     0.441590000000     0.044463   
H99      H      0.876280000000     0.464520000000     0.529510000000     0.0320665  
H100     H      0.121530000000     0.460850000000     0.463310000000     0.0324797  
H101     H      0.377390000000     0.530430000000     0.532630000000     0.0373227  
H102     H      0.221650000000     0.490240000000     0.449100000000     0.0432465  
H103     H      0.276180000000     0.503030000000     0.549280000000     0.0423612  
H104     H      0.321650000000     0.532880000000     0.532030000000     0.060842   
H105     H      0.219790000000     0.504060000000     0.548110000000     0.0421255  
H106     H      0.318900000000     0.454530000000     0.470870000000     0.0816653  
H107     H      0.177490000000     0.460120000000     0.464480000000     0.0569909  
H108     H      0.176410000000     0.534550000000     0.530990000000     0.0565747  
H109     H      0.278000000000     0.488870000000     0.450380000000     0.0464335  
H110     H      0.120410000000     0.534170000000     0.529900000000     0.0324284  
H111     H      0.874410000000     0.466320000000     0.960040000000     0.0377521  
H112     H      0.618860000000     0.531410000000     0.033640000000     0.0317975  
H113     H      0.776510000000     0.503570000000     0.947530000000     0.0442308  
H114     H      0.718570000000     0.499200000000     0.046520000000     0.0415481  
H115     H      0.674620000000     0.532310000000     0.034830000000     0.0586661  
H116     H      0.775060000000     0.498690000000     0.047320000000     0.0429137  
H117     H      0.677130000000     0.471520000000     0.956100000000     0.080308   
H118     H      0.818410000000     0.466980000000     0.960220000000     0.058871   
H119     H      0.819980000000     0.532490000000     0.035460000000     0.0590726  
H120     H      0.720200000000     0.504490000000     0.946680000000     0.0445566  
H121     H      0.876100000000     0.531180000000     0.034910000000     0.0396501  
H122     H      0.375820000000     0.530100000000     0.959140000000     0.0401283  
H123     H      0.119010000000     0.466510000000     0.029680000000     0.0321025  
H124     H      0.276710000000     0.495910000000     0.944800000000     0.0438872  
H125     H      0.218340000000     0.499090000000     0.043570000000     0.0416253  
H126     H      0.174700000000     0.466130000000     0.031090000000     0.0587227  
H127     H      0.274790000000     0.498700000000     0.044670000000     0.043136   
H128     H      0.176980000000     0.528580000000     0.953660000000     0.0812496  
H129     H      0.319800000000     0.530590000000     0.958280000000     0.0597767  
H130     H      0.318660000000     0.464130000000     0.032700000000     0.0581117  
H131     H      0.220380000000     0.495950000000     0.943660000000     0.0451661  
H132     H      0.374760000000     0.464330000000     0.033230000000     0.0371837  
H133     H      0.031580000000     0.533610000000     0.616660000000     0.032316   
H134     H      0.964320000000     0.463290000000     0.872710000000     0.0408519  
H135     H      0.046850000000     0.503720000000     0.716540000000     0.0429129  
H136     H      0.947180000000     0.491220000000     0.772020000000     0.0425389  
H137     H      0.964960000000     0.460830000000     0.817020000000     0.0616302  
H138     H      0.947760000000     0.490390000000     0.715640000000     0.0420675  
H139     H      0.026000000000     0.539260000000     0.814260000000     0.0817597  
H140     H      0.031210000000     0.533980000000     0.672630000000     0.0569841  
H141     H      0.964170000000     0.460020000000     0.672010000000     0.0561179  
H142     H      0.046130000000     0.504940000000     0.772930000000     0.0463575  
H143     H      0.964450000000     0.460780000000     0.616000000000     0.031912   
H144     H      0.968140000000     0.533140000000     0.117290000000     0.0377674  
H145     H      0.032310000000     0.460480000000     0.373100000000     0.031717   
H146     H      0.006650000000     0.546260000000     0.214790000000     0.0442597  
H147     H      0.001500000000     0.447470000000     0.273000000000     0.0410806  
H148     H      0.033750000000     0.458970000000     0.317390000000     0.0583676  
H149     H      0.001490000000     0.446500000000     0.216490000000     0.042058   
H150     H      0.973840000000     0.538330000000     0.313860000000     0.0803324  
H151     H      0.969540000000     0.533280000000     0.173230000000     0.0589697  
H152     H      0.035460000000     0.458430000000     0.171280000000     0.0562322  
H153     H      0.007160000000     0.547290000000     0.271100000000     0.0447468  
H154     H      0.033470000000     0.458690000000     0.115110000000     0.0318506  
H155     H      0.031870000000     0.619760000000     0.530870000000     0.0325685  
H156     H      0.959310000000     0.875350000000     0.523960000000     0.0386237  
H157     H      0.047850000000     0.718970000000     0.500060000000     0.0434606  
H158     H      0.949070000000     0.776260000000     0.488650000000     0.0424763  
H159     H      0.958390000000     0.819620000000     0.523560000000     0.0612598  
H160     H      0.948480000000     0.719830000000     0.489230000000     0.0429389  
H161     H      0.040470000000     0.818750000000     0.467360000000     0.0808685  
H162     H      0.031770000000     0.675730000000     0.531450000000     0.0570057  
H163     H      0.963940000000     0.675740000000     0.458220000000     0.0594381  
H164     H      0.048280000000     0.775270000000     0.500850000000     0.0449964  
H165     H      0.964050000000     0.619690000000     0.458670000000     0.0402306  
H166     H      0.963860000000     0.376110000000     0.529290000000     0.0321485  
H167     H      0.033910000000     0.119810000000     0.525040000000     0.0314789  
H168     H      0.947290000000     0.276980000000     0.498840000000     0.0428805  
H169     H      0.045610000000     0.218620000000     0.488930000000     0.041333   
H170     H      0.035560000000     0.175580000000     0.524110000000     0.0584888  
H171     H      0.046740000000     0.275060000000     0.488930000000     0.041758   
H172     H      0.953810000000     0.176910000000     0.467420000000     0.0819589  
H173     H      0.963370000000     0.320180000000     0.530020000000     0.0562984  
H174     H      0.032100000000     0.319250000000     0.457630000000     0.0564236  
H175     H      0.946310000000     0.220720000000     0.500240000000     0.0449306  
H176     H      0.032580000000     0.375330000000     0.457950000000     0.0320079  
H177     H      0.618970000000     0.029410000000     0.465360000000     0.0325272  
H178     H      0.875600000000     0.959660000000     0.530810000000     0.0369897  
H179     H      0.716780000000     0.044340000000     0.502370000000     0.0434828  
H180     H      0.774880000000     0.945360000000     0.503360000000     0.0422969  
H181     H      0.819970000000     0.958820000000     0.534260000000     0.0603873  
H182     H      0.718430000000     0.944430000000     0.503090000000     0.0423351  
H183     H      0.814910000000     0.033120000000     0.468330000000     0.0824434  
H184     H      0.675000000000     0.029700000000     0.466500000000     0.0575288  
H185     H      0.673390000000     0.957750000000     0.535610000000     0.05651    
H186     H      0.773130000000     0.045330000000     0.502940000000     0.0459079  
H187     H      0.617340000000     0.957740000000     0.533740000000     0.0322675  
H188     H      0.117740000000     0.037210000000     0.528660000000     0.0327001  
H189     H      0.373900000000     0.962240000000     0.467690000000     0.0389739  
H190     H      0.217660000000     0.050950000000     0.494690000000     0.0434383  
H191     H      0.274110000000     0.951100000000     0.498880000000     0.0425462  
H192     H      0.318240000000     0.962150000000     0.466660000000     0.0614527  
H193     H      0.217700000000     0.951100000000     0.497810000000     0.0446919  
H194     H      0.317080000000     0.040680000000     0.527770000000     0.08122    
H195     H      0.173820000000     0.037710000000     0.529460000000     0.0575646  
H196     H      0.174810000000     0.964360000000     0.461840000000     0.0596823  
H197     H      0.274030000000     0.051040000000     0.495220000000     0.0453616  
H198     H      0.118740000000     0.964250000000     0.461640000000     0.0406752  
H199     H      0.964170000000     0.876530000000     0.029400000000     0.0409477  
H200     H      0.034490000000     0.620200000000     0.964570000000     0.0434951  
H201     H      0.949810000000     0.778000000000     0.994060000000     0.0446173  
H202     H      0.048550000000     0.719570000000     0.997000000000     0.0429608  
H203     H      0.036130000000     0.675860000000     0.964340000000     0.0627003  
H204     H      0.049660000000     0.776040000000     0.996650000000     0.0428437  
H205     H      0.958470000000     0.678300000000     0.026490000000     0.0804585  
H206     H      0.963680000000     0.820550000000     0.029510000000     0.0601098  
H207     H      0.037240000000     0.820310000000     0.962110000000     0.0573895  
H208     H      0.948630000000     0.721670000000     0.993960000000     0.0453043  
H209     H      0.037390000000     0.876470000000     0.962660000000     0.0326337  
H210     H      0.961740000000     0.119290000000     0.958370000000     0.0319273  
H211     H      0.027160000000     0.375890000000     0.028320000000     0.0320246  
H212     H      0.995120000000     0.218840000000     0.943090000000     0.0426935  
H213     H      0.992480000000     0.277590000000     0.041650000000     0.0409966  
H214     H      0.026270000000     0.320250000000     0.029490000000     0.058457   
H215     H      0.992330000000     0.221180000000     0.042930000000     0.0423611  
H216     H      0.964810000000     0.319650000000     0.951230000000     0.0796419  
H217     H      0.960340000000     0.175380000000     0.957270000000     0.0563344  
H218     H      0.027870000000     0.177850000000     0.030670000000     0.0579949  
H219     H      0.995800000000     0.275200000000     0.941730000000     0.0439632  
H220     H      0.028660000000     0.121810000000     0.031380000000     0.0371285  
H221     H      0.621450000000     0.961490000000     0.032180000000     0.0322548  
H222     H      0.876860000000     0.033260000000     0.964220000000     0.0315738  
H223     H      0.719690000000     0.947480000000     0.995450000000     0.0427133  
H224     H      0.777930000000     0.046350000000     0.997940000000     0.0408454  
H225     H      0.821140000000     0.034420000000     0.964460000000     0.0579567  
H226     H      0.721480000000     0.047310000000     0.998790000000     0.0417421  
H227     H      0.819910000000     0.956000000000     0.025700000000     0.0798565  
H228     H      0.677500000000     0.961090000000     0.031740000000     0.0567365  
H229     H      0.676900000000     0.034960000000     0.964670000000     0.0560201  
H230     H      0.776010000000     0.946440000000     0.994100000000     0.0438131  
H231     H      0.620810000000     0.034970000000     0.965730000000     0.0322061  
H232     H      0.377600000000     0.033130000000     0.036320000000     0.0320783  
H233     H      0.121920000000     0.969810000000     0.961400000000     0.0320001  
H234     H      0.277630000000     0.000300000000     0.049340000000     0.0428454  
H235     H      0.221070000000     0.003410000000     0.949510000000     0.0414024  
H236     H      0.177590000000     0.970230000000     0.960970000000     0.0583183  
H237     H      0.277510000000     0.002920000000     0.949460000000     0.0429952  
H238     H      0.177640000000     0.032240000000     0.038800000000     0.0797575  
H239     H      0.321530000000     0.034640000000     0.036240000000     0.0569818  
H240     H      0.320440000000     0.967320000000     0.962610000000     0.0579136  
H241     H      0.221270000000     0.000340000000     0.049460000000     0.0441     
H242     H      0.376490000000     0.966460000000     0.963040000000     0.0369017  
H243     H      0.038460000000     0.965460000000     0.874480000000     0.0322315  
H244     H      0.026320000000     0.035760000000     0.617450000000     0.0324803  
H245     H      0.007870000000     0.947880000000     0.775100000000     0.0429559  
H246     H      0.993540000000     0.045980000000     0.717270000000     0.0414422  
H247     H      0.027620000000     0.036850000000     0.673160000000     0.0586383  
H248     H      0.995130000000     0.047020000000     0.773650000000     0.041511   
H249     H      0.972480000000     0.954100000000     0.676000000000     0.0801515  
H250     H      0.039190000000     0.965080000000     0.818410000000     0.0565782  
H251     H      0.964310000000     0.031060000000     0.817680000000     0.0564745  
H252     H      0.007530000000     0.947020000000     0.718730000000     0.0447859  
H253     H      0.964560000000     0.031410000000     0.873650000000     0.0324007  
H254     H      0.966480000000     0.960760000000     0.117810000000     0.0376147  
H255     H      0.037330000000     0.972810000000     0.374380000000     0.0357879  
H256     H      0.948390000000     0.989210000000     0.217010000000     0.0442882  
H257     H      0.045530000000     0.008230000000     0.275070000000     0.04246    
H258     H      0.039010000000     0.973390000000     0.318590000000     0.06068    
H259     H      0.046630000000     0.007700000000     0.218670000000     0.0439685  
H260     H      0.951780000000     0.021270000000     0.316680000000     0.0823562  
H261     H      0.966390000000     0.959890000000     0.173750000000     0.0587045  
H262     H      0.029850000000     0.036960000000     0.174410000000     0.0589225  
H263     H      0.947620000000     0.988110000000     0.273220000000     0.0456552  
H264     H      0.030150000000     0.036640000000     0.118380000000     0.0396659  
N1       N      0.504900000000     0.494890000000     0.615310000000    -0.191205   
N2       N      0.498450000000     0.494230000000     0.879660000000    -0.182138   
N3       N      0.553010000000     0.464120000000     0.616470000000    -0.031251   
N4       N      0.493050000000     0.500520000000     0.379650000000    -0.191546   
N5       N      0.498070000000     0.498660000000     0.115330000000    -0.182743   
N6       N      0.445360000000     0.469140000000     0.377590000000    -0.0315344  
N7       N      0.496200000000     0.613940000000     0.502240000000    -0.191848   
N8       N      0.493210000000     0.878320000000     0.499520000000    -0.183212   
N9       N      0.467500000000     0.614470000000     0.551630000000    -0.0314633  
N10      N      0.499870000000     0.114210000000     0.501970000000    -0.192031   
N11      N      0.500590000000     0.378140000000     0.495330000000    -0.181573   
N12      N      0.466990000000     0.117590000000     0.548610000000    -0.0307062  
N13      N      0.493560000000     0.615450000000     0.997930000000    -0.192627   
N14      N      0.497770000000     0.879760000000     0.000070000000    -0.182519   
N15      N      0.446090000000     0.617350000000     0.966190000000    -0.031164   
N16      N      0.499300000000     0.379700000000     0.002340000000    -0.191907   
N17      N      0.498660000000     0.115410000000     0.998190000000    -0.184251   
N18      N      0.468160000000     0.377880000000     0.050210000000    -0.031275   
N19      N      0.500130000000     0.993360000000     0.881660000000    -0.193198   
N20      N      0.496720000000     0.995590000000     0.617370000000    -0.18272    
N21      N      0.471240000000     0.944070000000     0.880480000000    -0.0312166  
N22      N      0.494400000000     0.997780000000     0.381700000000    -0.192803   
N23      N      0.500290000000     0.997920000000     0.117370000000    -0.184109   
N24      N      0.444830000000     0.969470000000     0.379250000000    -0.031389   
N25      N      0.616610000000     0.496830000000     0.490600000000    -0.191349   
N26      N      0.881010000000     0.497670000000     0.492780000000    -0.183268   
N27      N      0.617260000000     0.528640000000     0.443150000000    -0.0311309  
N28      N      0.380930000000     0.491520000000     0.501750000000    -0.191621   
N29      N      0.116740000000     0.497530000000     0.496510000000    -0.183829   
N30      N      0.378570000000     0.443960000000     0.470150000000    -0.0307053  
N31      N      0.615260000000     0.501250000000     0.994180000000    -0.192962   
N32      N      0.879480000000     0.498780000000     0.997360000000    -0.182479   
N33      N      0.617450000000     0.470450000000     0.946100000000    -0.0311663  
N34      N      0.115220000000     0.497400000000     0.990810000000    -0.192689   
N35      N      0.379520000000     0.497170000000     0.996220000000    -0.18249    
N36      N      0.117300000000     0.529510000000     0.943580000000    -0.0316807  
N37      N      0.995000000000     0.502370000000     0.876300000000    -0.19136    
N38      N      0.998030000000     0.497220000000     0.612100000000    -0.184279   
N39      N      0.026790000000     0.549790000000     0.873930000000    -0.0309101  
N40      N      0.002620000000     0.500340000000     0.376230000000    -0.19251    
N41      N      0.000750000000     0.495960000000     0.111970000000    -0.182609   
N42      N      0.972170000000     0.548610000000     0.373440000000    -0.0311992  
N43      N      0.000410000000     0.879820000000     0.496190000000    -0.190947   
N44      N      0.998000000000     0.615510000000     0.494730000000    -0.18311    
N45      N      0.050030000000     0.878540000000     0.467900000000    -0.0313049  
N46      N      0.992940000000     0.115660000000     0.497080000000    -0.192884   
N47      N      0.998230000000     0.379950000000     0.493580000000    -0.184103   
N48      N      0.943230000000     0.117270000000     0.469050000000    -0.0317841  
N49      N      0.878040000000     0.996930000000     0.497830000000    -0.191354   
N50      N      0.613930000000     0.993670000000     0.499540000000    -0.184196   
N51      N      0.874090000000     0.039310000000     0.459620000000    -0.0326967  
N52      N      0.378270000000     0.001560000000     0.497950000000    -0.190958   
N53      N      0.114020000000     0.000670000000     0.495170000000    -0.182707   
N54      N      0.376930000000     0.049420000000     0.529160000000    -0.0316421  
N55      N      0.995410000000     0.616470000000     0.995240000000    -0.191458   
N56      N      0.000770000000     0.880730000000     0.995990000000    -0.182942   
N57      N      0.948170000000     0.618700000000     0.027320000000    -0.0312966  
N58      N      0.996850000000     0.380550000000     0.989070000000    -0.192856   
N59      N      0.995320000000     0.116330000000     0.994900000000    -0.183713   
N60      N      0.965490000000     0.379380000000     0.941320000000    -0.0311946  
N61      N      0.881130000000     0.993940000000     0.994470000000    -0.193121   
N62      N      0.616900000000     0.998180000000     0.998940000000    -0.184233   
N63      N      0.879590000000     0.946050000000     0.025620000000    -0.0311308  
N64      N      0.116990000000     0.000340000000     0.000450000000    -0.191573   
N65      N      0.381270000000     0.999690000000     0.999720000000    -0.184042   
N66      N      0.117820000000     0.032250000000     0.047850000000    -0.0311639  
N67      N      0.998900000000     0.994330000000     0.613930000000    -0.192731   
N68      N      0.001450000000     0.998400000000     0.878300000000    -0.183715   
N69      N      0.971160000000     0.944430000000     0.616200000000    -0.0313537  
N70      N      0.993630000000     0.996330000000     0.378180000000    -0.192502   
N71      N      0.998280000000     0.998770000000     0.113880000000    -0.182747   
N72      N      0.941020000000     0.018110000000     0.376240000000    -0.03118    
O1       O      0.999110000000     0.998540000000     0.996010000000    -0.369366   
O2       O      0.981310000000     0.979890000000     0.067310000000    -0.297208   
O3       O      0.069290000000     0.018660000000     0.015480000000    -0.280699   
O4       O      0.018980000000     0.927350000000     0.978210000000    -0.299552   
O5       O      0.015450000000     0.018000000000     0.067500000000    -0.293056   
O6       O      0.982290000000     0.927060000000     0.013900000000    -0.294132   
O7       O      0.071390000000     0.981470000000     0.980580000000    -0.30217    
O8       O      0.981700000000     0.015470000000     0.924470000000    -0.301153   
O9       O      0.014550000000     0.070590000000     0.013650000000    -0.296653   
O10      O      0.019680000000     0.981100000000     0.925090000000    -0.300448   
O11      O      0.978710000000     0.069140000000     0.977110000000    -0.301239   
O12      O      0.927200000000     0.013630000000     0.976510000000    -0.301333   
O13      O      0.928370000000     0.978790000000     0.013770000000    -0.281545   
O14      O      0.996280000000     0.997700000000     0.496150000000    -0.370262   
O15      O      0.976330000000     0.014500000000     0.425120000000    -0.274277   
O16      O      0.067850000000     0.981660000000     0.477310000000    -0.294367   
O17      O      0.012170000000     0.069540000000     0.515340000000    -0.30081    
O18      O      0.013960000000     0.979940000000     0.424460000000    -0.296828   
O19      O      0.977240000000     0.068500000000     0.478100000000    -0.276466   
O20      O      0.067270000000     0.017940000000     0.513420000000    -0.300127   
O21      O      0.979410000000     0.978070000000     0.567090000000    -0.279602   
O22      O      0.016440000000     0.927210000000     0.477990000000    -0.279461   
O23      O      0.015110000000     0.014600000000     0.567510000000    -0.299093   
O24      O      0.979920000000     0.925710000000     0.513610000000    -0.293011   
O25      O      0.925000000000     0.978050000000     0.514430000000    -0.296085   
O26      O      0.924660000000     0.015490000000     0.479830000000    -0.269982   
O27      O      0.997260000000     0.498400000000     0.994270000000    -0.370107   
O28      O      0.015300000000     0.426290000000     0.009020000000    -0.30002    
O29      O      0.925430000000     0.481500000000     0.977290000000    -0.296617   
O30      O      0.981940000000     0.515140000000     0.066270000000    -0.298008   
O31      O      0.978400000000     0.428140000000     0.973800000000    -0.281013   
O32      O      0.016970000000     0.477810000000     0.064730000000    -0.300026   
O33      O      0.926460000000     0.515780000000     0.015280000000    -0.29261    
O34      O      0.014380000000     0.570270000000     0.976980000000    -0.2907     
O35      O      0.977140000000     0.483300000000     0.922640000000    -0.293712   
O36      O      0.979200000000     0.569250000000     0.013900000000    -0.279865   
O37      O      0.014410000000     0.518120000000     0.923320000000    -0.273592   
O38      O      0.068130000000     0.517050000000     0.975550000000    -0.278458   
O39      O      0.068960000000     0.479060000000     0.009630000000    -0.299953   
O40      O      0.998930000000     0.497710000000     0.494240000000    -0.367615   
O41      O      0.980530000000     0.426520000000     0.511740000000    -0.30189    
O42      O      0.019130000000     0.480850000000     0.422930000000    -0.301653   
O43      O      0.927730000000     0.515230000000     0.474770000000    -0.29776    
O44      O      0.016760000000     0.426330000000     0.475530000000    -0.300845   
O45      O      0.927270000000     0.479900000000     0.511810000000    -0.301394   
O46      O      0.982470000000     0.516350000000     0.422850000000    -0.282154   
O47      O      0.016290000000     0.569100000000     0.512780000000    -0.30073    
O48      O      0.070570000000     0.479170000000     0.477850000000    -0.30074    
O49      O      0.980440000000     0.568970000000     0.476240000000    -0.293802   
O50      O      0.069960000000     0.516170000000     0.513240000000    -0.301143   
O51      O      0.016140000000     0.515780000000     0.565820000000    -0.301676   
O52      O      0.980340000000     0.479200000000     0.565430000000    -0.302076   
O53      O      0.499170000000     0.997610000000     0.999560000000    -0.368358   
O54      O      0.427400000000     0.980890000000     0.981500000000    -0.298445   
O55      O      0.482120000000     0.016020000000     0.070950000000    -0.301836   
O56      O      0.517280000000     0.926000000000     0.017400000000    -0.300775   
O57      O      0.428070000000     0.016420000000     0.018320000000    -0.300655   
O58      O      0.479460000000     0.926470000000     0.982910000000    -0.295038   
O59      O      0.517890000000     0.979380000000     0.070820000000    -0.301366   
O60      O      0.570240000000     0.016300000000     0.981320000000    -0.300257   
O61      O      0.481770000000     0.068980000000     0.017450000000    -0.301581   
O62      O      0.570610000000     0.979440000000     0.016870000000    -0.300402   
O63      O      0.516240000000     0.068890000000     0.979590000000    -0.301559   
O64      O      0.517590000000     0.013720000000     0.927620000000    -0.301226   
O65      O      0.481080000000     0.978070000000     0.928930000000    -0.282381   
O66      O      0.496200000000     0.996190000000     0.499580000000    -0.369044   
O67      O      0.425530000000     0.016520000000     0.517400000000    -0.277776   
O68      O      0.477620000000     0.978960000000     0.428570000000    -0.28119    
O69      O      0.516500000000     0.067430000000     0.482790000000    -0.300426   
O70      O      0.424240000000     0.980890000000     0.480910000000    -0.293528   
O71      O      0.480190000000     0.067580000000     0.518600000000    -0.27466    
O72      O      0.513720000000     0.015080000000     0.428180000000    -0.300288   
O73      O      0.567070000000     0.976290000000     0.517260000000    -0.301795   
O74      O      0.475760000000     0.925180000000     0.481580000000    -0.297053   
O75      O      0.567870000000     0.012580000000     0.481160000000    -0.300715   
O76      O      0.512510000000     0.924440000000     0.517220000000    -0.302026   
O77      O      0.514230000000     0.977470000000     0.570690000000    -0.301374   
O78      O      0.478370000000     0.013980000000     0.571110000000    -0.290579   
O79      O      0.497370000000     0.497610000000     0.997520000000    -0.369138   
O80      O      0.426210000000     0.514460000000     0.977930000000    -0.293957   
O81      O      0.479600000000     0.426840000000     0.017420000000    -0.281407   
O82      O      0.515520000000     0.477050000000     0.926870000000    -0.293571   
O83      O      0.425780000000     0.479820000000     0.015610000000    -0.295927   
O84      O      0.480120000000     0.514000000000     0.925390000000    -0.296138   
O85      O      0.516870000000     0.425840000000     0.982560000000    -0.298864   
O86      O      0.568750000000     0.518350000000     0.013600000000    -0.30046    
O87      O      0.479030000000     0.481160000000     0.069030000000    -0.293715   
O88      O      0.568560000000     0.480560000000     0.979290000000    -0.281343   
O89      O      0.516680000000     0.515850000000     0.068660000000    -0.299806   
O90      O      0.513060000000     0.569320000000     0.015820000000    -0.300606   
O91      O      0.478410000000     0.568260000000     0.978330000000    -0.280173   
O92      O      0.498830000000     0.496010000000     0.497440000000    -0.369536   
O93      O      0.427710000000     0.476500000000     0.481320000000    -0.275394   
O94      O      0.483740000000     0.512240000000     0.569720000000    -0.293847   
O95      O      0.518740000000     0.424580000000     0.513510000000    -0.295625   
O96      O      0.427430000000     0.510700000000     0.519190000000    -0.296862   
O97      O      0.481610000000     0.424660000000     0.478280000000    -0.289506   
O98      O      0.520890000000     0.477340000000     0.567530000000    -0.279283   
O99      O      0.568830000000     0.515700000000     0.476300000000    -0.27903    
O100     O      0.478980000000     0.566050000000     0.517970000000    -0.280241   
O101     O      0.571130000000     0.478350000000     0.511020000000    -0.294621   
O102     O      0.515020000000     0.568520000000     0.481900000000    -0.29623    
O103     O      0.512620000000     0.517720000000     0.426050000000    -0.294149   
O104     O      0.478700000000     0.479570000000     0.426450000000    -0.277892   
O105     O      0.560530000000     0.435810000000     0.623430000000    -0.0993207  
O106     O      0.572640000000     0.481140000000     0.601260000000    -0.0880742  
O107     O      0.437550000000     0.441280000000     0.369280000000    -0.0905826  
O108     O      0.426170000000     0.485350000000     0.394180000000    -0.0788726  
O109     O      0.439670000000     0.621280000000     0.560860000000    -0.0993584  
O110     O      0.485600000000     0.598960000000     0.570030000000    -0.0871521  
O111     O      0.438500000000     0.125330000000     0.554500000000    -0.0849562  
O112     O      0.482720000000     0.102690000000     0.569520000000    -0.0857179  
O113     O      0.438930000000     0.625160000000     0.938020000000    -0.0988893  
O114     O      0.426320000000     0.601480000000     0.982430000000    -0.0896724  
O115     O      0.484690000000     0.393910000000     0.069610000000    -0.0891171  
O116     O      0.440130000000     0.370040000000     0.057890000000    -0.0999171  
O117     O      0.488800000000     0.925750000000     0.896680000000    -0.0900408  
O118     O      0.443610000000     0.934860000000     0.872860000000    -0.100268   
O119     O      0.435580000000     0.941930000000     0.371370000000    -0.100045   
O120     O      0.426240000000     0.987190000000     0.394960000000    -0.0875998  
O121     O      0.601270000000     0.512150000000     0.423690000000    -0.0901853  
O122     O      0.624540000000     0.556910000000     0.435810000000    -0.0990938  
O123     O      0.370630000000     0.436410000000     0.442110000000    -0.0865148  
O124     O      0.394560000000     0.424450000000     0.486580000000    -0.0860337  
O125     O      0.625700000000     0.442630000000     0.938080000000    -0.0998609  
O126     O      0.601070000000     0.486930000000     0.926950000000    -0.0899115  
O127     O      0.101620000000     0.513330000000     0.923600000000    -0.0772133  
O128     O      0.125000000000     0.557780000000     0.936660000000    -0.091353   
O129     O      0.010340000000     0.569730000000     0.889360000000    -0.0835433  
O130     O      0.055040000000     0.556900000000     0.866340000000    -0.0855909  
O131     O      0.944300000000     0.556430000000     0.365190000000    -0.0999785  
O132     O      0.988700000000     0.568090000000     0.389370000000    -0.089772   
O133     O      0.059390000000     0.871090000000     0.440270000000    -0.0984722  
O134     O      0.068380000000     0.894390000000     0.485760000000    -0.0879316  
O135     O      0.933230000000     0.124930000000     0.441700000000    -0.0829725  
O136     O      0.925340000000     0.101240000000     0.487200000000    -0.0725598  
O137     O      0.868160000000     0.068620000000     0.462970000000    -0.0776519  
O138     O      0.885130000000     0.029600000000     0.433380000000    -0.0605392  
O139     O      0.369270000000     0.056800000000     0.557330000000    -0.0908701  
O140     O      0.392940000000     0.068950000000     0.512780000000    -0.0759927  
O141     O      0.927800000000     0.603670000000     0.011030000000    -0.0875357  
O142     O      0.941610000000     0.626050000000     0.055760000000    -0.0994568  
O143     O      0.937210000000     0.372270000000     0.933850000000    -0.100549   
O144     O      0.982320000000     0.394870000000     0.921730000000    -0.0893047  
O145     O      0.895370000000     0.926620000000     0.008890000000    -0.0900759  
O146     O      0.872100000000     0.938380000000     0.053750000000    -0.100167   
O147     O      0.124780000000     0.060700000000     0.054800000000    -0.100274   
O148     O      0.102410000000     0.015710000000     0.067730000000    -0.0897497  
O149     O      0.943910000000     0.934780000000     0.624580000000    -0.0994273  
O150     O      0.988670000000     0.926270000000     0.599770000000    -0.0874556  
O151     O      0.925610000000     0.997700000000     0.392110000000    -0.0761288  
O152     O      0.927500000000     0.043840000000     0.368420000000    -0.0817034  
Zn1      Zn     0.973590000000     0.971980000000     0.022070000000     0.462947   
Zn2      Zn     0.023790000000     0.025770000000     0.022290000000     0.462258   
Zn3      Zn     0.026550000000     0.972900000000     0.970640000000     0.453582   
Zn4      Zn     0.972360000000     0.023500000000     0.969390000000     0.453849   
Zn5      Zn     0.969570000000     0.023290000000     0.470440000000     0.472108   
Zn6      Zn     0.022840000000     0.972520000000     0.469660000000     0.463358   
Zn7      Zn     0.021890000000     0.024320000000     0.522340000000     0.456032   
Zn8      Zn     0.970640000000     0.970710000000     0.521900000000     0.462073   
Zn9      Zn     0.023800000000     0.471160000000     0.018860000000     0.454566   
Zn10     Zn     0.970330000000     0.473600000000     0.967780000000     0.462628   
Zn11     Zn     0.972000000000     0.523870000000     0.021680000000     0.461804   
Zn12     Zn     0.022880000000     0.525210000000     0.968500000000     0.469045   
Zn13     Zn     0.972500000000     0.471650000000     0.520070000000     0.453258   
Zn14     Zn     0.025480000000     0.471670000000     0.468350000000     0.453718   
Zn15     Zn     0.973060000000     0.523690000000     0.467820000000     0.460865   
Zn16     Zn     0.024580000000     0.523940000000     0.520700000000     0.454906   
Zn17     Zn     0.472440000000     0.971640000000     0.974100000000     0.46158    
Zn18     Zn     0.473540000000     0.023920000000     0.025860000000     0.454654   
Zn19     Zn     0.525470000000     0.971310000000     0.025400000000     0.453606   
Zn20     Zn     0.524940000000     0.023490000000     0.972750000000     0.45365    
Zn21     Zn     0.470800000000     0.022620000000     0.525950000000     0.468704   
Zn22     Zn     0.469270000000     0.970810000000     0.473600000000     0.460874   
Zn23     Zn     0.522790000000     0.022030000000     0.473550000000     0.455189   
Zn24     Zn     0.521740000000     0.969360000000     0.525400000000     0.454785   
Zn25     Zn     0.471450000000     0.522840000000     0.970420000000     0.460986   
Zn26     Zn     0.471050000000     0.472180000000     0.024010000000     0.461781   
Zn27     Zn     0.523650000000     0.470860000000     0.972380000000     0.462052   
Zn28     Zn     0.523350000000     0.524400000000     0.023190000000     0.455418   
Zn29     Zn     0.472670000000     0.469920000000     0.471560000000     0.468516   
Zn30     Zn     0.472790000000     0.520440000000     0.525160000000     0.462699   
Zn31     Zn     0.526550000000     0.469850000000     0.521760000000     0.462117   
Zn32     Zn     0.523130000000     0.523760000000     0.471210000000     0.461813   


