data_structure

_audit_creation_method RASPA-1.0
_audit_creation_date 2023-5-19
_audit_author_name 'Poobodin Mano'

_cell_length_a    35.0435
_cell_length_b    35.0422
_cell_length_c    35.0443
_cell_angle_alpha 90
_cell_angle_beta  90
_cell_angle_gamma 90
_cell_volume      43034.4

_symmetry_cell_setting          triclinic
_symmetry_space_group_name_Hall 'P 1'
_symmetry_space_group_name_H-M  'P 1'
_symmetry_Int_Tables_number     1

_symmetry_equiv_pos_as_xyz 'x,y,z'

loop_
_atom_site_label
_atom_site_type_symbol
_atom_site_fract_x
_atom_site_fract_y
_atom_site_fract_z
_atom_site_charge
C1       C      0.989000000000     0.989730000000     0.096030000000     0.316744   
C2       C      0.095640000000     0.989900000000     0.989980000000     0.315227   
C3       C      0.990820000000     0.884000000000     0.989980000000     0.315332   
C4       C      0.988920000000     0.990720000000     0.884460000000     0.316503   
C5       C      0.991400000000     0.096420000000     0.990970000000     0.31561    
C6       C      0.884430000000     0.990490000000     0.990060000000     0.314893   
C7       C      0.094210000000     0.990530000000     0.490020000000     0.315353   
C8       C      0.988020000000     0.989920000000     0.384310000000     0.316888   
C9       C      0.988570000000     0.884620000000     0.490720000000     0.315332   
C10      C      0.881940000000     0.989860000000     0.489980000000     0.315243   
C11      C      0.987870000000     0.095810000000     0.490210000000     0.315321   
C12      C      0.987980000000     0.990540000000     0.596170000000     0.316779   
C13      C      0.992580000000     0.384450000000     0.992130000000     0.314484   
C14      C      0.991870000000     0.490360000000     0.098390000000     0.316053   
C15      C      0.097800000000     0.490540000000     0.992180000000     0.316083   
C16      C      0.992000000000     0.595980000000     0.991790000000     0.31442    
C17      C      0.886380000000     0.489850000000     0.992160000000     0.316149   
C18      C      0.991890000000     0.490090000000     0.885820000000     0.316178   
C19      C      0.989800000000     0.384360000000     0.491940000000     0.31591    
C20      C      0.990520000000     0.490210000000     0.386370000000     0.314838   
C21      C      0.884090000000     0.490390000000     0.492310000000     0.31666    
C22      C      0.990110000000     0.596060000000     0.491900000000     0.315774   
C23      C      0.096400000000     0.490000000000     0.492300000000     0.316653   
C24      C      0.990540000000     0.490240000000     0.597840000000     0.31496    
C25      C      0.384190000000     0.990000000000     0.988320000000     0.315683   
C26      C      0.488990000000     0.990680000000     0.093910000000     0.315129   
C27      C      0.491170000000     0.884050000000     0.988520000000     0.315898   
C28      C      0.595870000000     0.990260000000     0.988410000000     0.315341   
C29      C      0.490840000000     0.096140000000     0.987180000000     0.316031   
C30      C      0.489070000000     0.989450000000     0.882310000000     0.315206   
C31      C      0.382270000000     0.990340000000     0.488320000000     0.314488   
C32      C      0.487890000000     0.989740000000     0.594360000000     0.316335   
C33      C      0.487890000000     0.884280000000     0.487790000000     0.316436   
C34      C      0.593890000000     0.989650000000     0.488280000000     0.314505   
C35      C      0.488700000000     0.095680000000     0.488200000000     0.31646    
C36      C      0.487840000000     0.990230000000     0.381850000000     0.315877   
C37      C      0.386210000000     0.490600000000     0.991090000000     0.316598   
C38      C      0.492000000000     0.489710000000     0.095610000000     0.315447   
C39      C      0.491720000000     0.384030000000     0.988410000000     0.316151   
C40      C      0.597970000000     0.489570000000     0.990960000000     0.316447   
C41      C      0.492750000000     0.596160000000     0.989300000000     0.31613    
C42      C      0.491850000000     0.490510000000     0.884260000000     0.31526    
C43      C      0.384220000000     0.489490000000     0.491000000000     0.316494   
C44      C      0.490540000000     0.384090000000     0.489330000000     0.316948   
C45      C      0.490490000000     0.489470000000     0.384250000000     0.315305   
C46      C      0.596270000000     0.490540000000     0.491030000000     0.316532   
C47      C      0.490460000000     0.490450000000     0.595610000000     0.315351   
C48      C      0.489490000000     0.595870000000     0.488360000000     0.316901   
C49      C      0.460500000000     0.475160000000     0.781840000000    -0.0600444  
C50      C      0.491240000000     0.490710000000     0.761200000000     0.021825   
C51      C      0.522160000000     0.506270000000     0.781570000000    -0.0600141  
C52      C      0.522250000000     0.506440000000     0.821450000000     0.016567   
C53      C      0.491640000000     0.490640000000     0.841980000000    -0.0858771  
C54      C      0.460810000000     0.474920000000     0.821720000000     0.0166011  
C55      C      0.491050000000     0.490660000000     0.718670000000     0.0218025  
C56      C      0.475400000000     0.459790000000     0.698280000000    -0.0600034  
C57      C      0.474990000000     0.459840000000     0.658410000000     0.0165702  
C58      C      0.490640000000     0.490540000000     0.637890000000    -0.0858923  
C59      C      0.506500000000     0.521290000000     0.658160000000     0.0165886  
C60      C      0.506490000000     0.521460000000     0.698050000000    -0.0599964  
C61      C      0.476010000000     0.520310000000     0.198150000000    -0.0600384  
C62      C      0.491400000000     0.489410000000     0.218660000000     0.0218298  
C63      C      0.507060000000     0.458620000000     0.198170000000    -0.0599882  
C64      C      0.507490000000     0.458820000000     0.158290000000     0.0165701  
C65      C      0.491860000000     0.489610000000     0.137880000000    -0.0859631  
C66      C      0.476030000000     0.520300000000     0.158270000000     0.0166328  
C67      C      0.491120000000     0.489310000000     0.261190000000     0.0217887  
C68      C      0.521840000000     0.473760000000     0.281870000000    -0.0600059  
C69      C      0.521510000000     0.473580000000     0.321750000000     0.016547   
C70      C      0.490670000000     0.489350000000     0.341970000000    -0.0858539  
C71      C      0.460040000000     0.505050000000     0.321400000000     0.016554   
C72      C      0.460160000000     0.504830000000     0.281520000000    -0.0599707  
C73      C      0.504010000000     0.781830000000     0.518290000000    -0.0603853  
C74      C      0.488430000000     0.761330000000     0.487480000000     0.0218628  
C75      C      0.472540000000     0.781800000000     0.456800000000    -0.0603987  
C76      C      0.472080000000     0.821680000000     0.457030000000     0.0170284  
C77      C      0.487970000000     0.842050000000     0.487690000000    -0.0869443  
C78      C      0.504030000000     0.821690000000     0.518270000000     0.0170347  
C79      C      0.488800000000     0.718810000000     0.487380000000     0.0219851  
C80      C      0.519830000000     0.698600000000     0.502910000000    -0.0606209  
C81      C      0.519960000000     0.658740000000     0.503350000000     0.017158   
C82      C      0.489320000000     0.638090000000     0.487780000000    -0.0873846  
C83      C      0.458490000000     0.658170000000     0.471860000000     0.0171946  
C84      C      0.458110000000     0.698050000000     0.471890000000    -0.0605591  
C85      C      0.505210000000     0.198100000000     0.457660000000    -0.0603566  
C86      C      0.489590000000     0.218640000000     0.488440000000     0.0218312  
C87      C      0.473720000000     0.198190000000     0.519150000000    -0.060381   
C88      C      0.473190000000     0.158330000000     0.518940000000     0.0170282  
C89      C      0.489010000000     0.137910000000     0.488270000000    -0.0869308  
C90      C      0.505140000000     0.158230000000     0.457700000000     0.0170532  
C91      C      0.489830000000     0.261150000000     0.488520000000     0.0219875  
C92      C      0.520800000000     0.281540000000     0.473090000000    -0.0605661  
C93      C      0.520900000000     0.321420000000     0.473060000000     0.0172145  
C94      C      0.490290000000     0.341870000000     0.488930000000    -0.0874337  
C95      C      0.459420000000     0.321590000000     0.504530000000     0.0171873  
C96      C      0.459060000000     0.281740000000     0.504090000000    -0.0606238  
C97      C      0.523710000000     0.781800000000     0.002610000000    -0.0605782  
C98      C      0.492370000000     0.761240000000     0.988430000000     0.0214686  
C99      C      0.460720000000     0.781270000000     0.974190000000    -0.0609872  
C100     C      0.460490000000     0.821140000000     0.973910000000     0.0169214  
C101     C      0.491660000000     0.841810000000     0.988450000000    -0.08728    
C102     C      0.523240000000     0.821700000000     0.002930000000     0.0170576  
C103     C      0.492560000000     0.718970000000     0.988650000000     0.0216215  
C104     C      0.523900000000     0.698680000000     0.974080000000    -0.0610034  
C105     C      0.523840000000     0.658780000000     0.973950000000     0.0170705  
C106     C      0.492710000000     0.638410000000     0.989000000000    -0.0873075  
C107     C      0.461520000000     0.658800000000     0.003870000000     0.01732    
C108     C      0.461320000000     0.698680000000     0.003410000000    -0.0607785  
C109     C      0.522840000000     0.198470000000     0.972490000000    -0.0609227  
C110     C      0.491440000000     0.218960000000     0.986650000000     0.0214884  
C111     C      0.459850000000     0.198850000000     0.000900000000    -0.0606633  
C112     C      0.459780000000     0.158980000000     0.001330000000     0.0171525  
C113     C      0.491070000000     0.138390000000     0.986920000000    -0.0872655  
C114     C      0.522530000000     0.158570000000     0.972320000000     0.016878   
C115     C      0.491670000000     0.261220000000     0.986740000000     0.0215867  
C116     C      0.523010000000     0.281310000000     0.001570000000    -0.0606909  
C117     C      0.522940000000     0.321190000000     0.002320000000     0.0172974  
C118     C      0.491770000000     0.341790000000     0.987660000000    -0.0873337  
C119     C      0.460610000000     0.321620000000     0.972420000000     0.0171053  
C120     C      0.460430000000     0.281730000000     0.972260000000    -0.0610231  
C121     C      0.502510000000     0.020850000000     0.779660000000    -0.0603973  
C122     C      0.487930000000     0.989450000000     0.759470000000     0.021347   
C123     C      0.473640000000     0.958060000000     0.779890000000    -0.0606083  
C124     C      0.473660000000     0.958190000000     0.819790000000     0.0166614  
C125     C      0.488580000000     0.989460000000     0.840050000000    -0.0865009  
C126     C      0.503120000000     0.020730000000     0.819530000000     0.0169449  
C127     C      0.487730000000     0.989430000000     0.717200000000     0.0216641  
C128     C      0.473380000000     0.020900000000     0.696950000000    -0.0608415  
C129     C      0.473100000000     0.020860000000     0.657060000000     0.0172608  
C130     C      0.487770000000     0.989600000000     0.636610000000    -0.087577   
C131     C      0.502360000000     0.958230000000     0.656940000000     0.0170226  
C132     C      0.502050000000     0.958020000000     0.696840000000    -0.0611029  
C133     C      0.501930000000     0.959000000000     0.196540000000    -0.0606639  
C134     C      0.487800000000     0.990590000000     0.216740000000     0.0213721  
C135     C      0.473960000000     0.022190000000     0.196340000000    -0.0603176  
C136     C      0.473980000000     0.022100000000     0.156440000000     0.0169258  
C137     C      0.488460000000     0.990640000000     0.136160000000    -0.0865243  
C138     C      0.502550000000     0.959140000000     0.156660000000     0.0166796  
C139     C      0.487620000000     0.990600000000     0.259020000000     0.0216488  
C140     C      0.472810000000     0.959330000000     0.279260000000    -0.0610873  
C141     C      0.472560000000     0.959360000000     0.319150000000     0.0169933  
C142     C      0.487700000000     0.990380000000     0.339600000000    -0.0873917  
C143     C      0.502750000000     0.021550000000     0.319270000000     0.0171816  
C144     C      0.502420000000     0.021780000000     0.279380000000    -0.0607832  
C145     C      0.781560000000     0.459310000000     0.507140000000    -0.0610083  
C146     C      0.761300000000     0.490610000000     0.492460000000     0.0217657  
C147     C      0.781630000000     0.521890000000     0.477820000000    -0.0610663  
C148     C      0.821510000000     0.521710000000     0.477500000000     0.0170299  
C149     C      0.841850000000     0.490500000000     0.492430000000    -0.0873782  
C150     C      0.821440000000     0.459370000000     0.507420000000     0.0169925  
C151     C      0.719050000000     0.490570000000     0.492260000000     0.0218526  
C152     C      0.698900000000     0.459070000000     0.477860000000    -0.0610675  
C153     C      0.659020000000     0.459180000000     0.477220000000     0.017133   
C154     C      0.638500000000     0.490530000000     0.491570000000    -0.0872291  
C155     C      0.658730000000     0.521890000000     0.506320000000     0.017158   
C156     C      0.698620000000     0.522030000000     0.506360000000    -0.0610309  
C157     C      0.198820000000     0.458110000000     0.478420000000    -0.0610877  
C158     C      0.219180000000     0.489640000000     0.492460000000     0.0218396  
C159     C      0.198960000000     0.521250000000     0.506530000000    -0.061156   
C160     C      0.159080000000     0.521230000000     0.506800000000     0.0171262  
C161     C      0.138630000000     0.489850000000     0.492410000000    -0.0874738  
C162     C      0.158940000000     0.458330000000     0.478100000000     0.0170786  
C163     C      0.261440000000     0.489640000000     0.492260000000     0.0218048  
C164     C      0.281830000000     0.458440000000     0.507000000000    -0.0609871  
C165     C      0.321720000000     0.458530000000     0.506950000000     0.0170576  
C166     C      0.341980000000     0.489560000000     0.491550000000    -0.0870842  
C167     C      0.321500000000     0.520640000000     0.476560000000     0.0170392  
C168     C      0.281620000000     0.520800000000     0.477210000000    -0.0609866  
C169     C      0.700340000000     0.458770000000     0.007330000000    -0.0602394  
C170     C      0.720920000000     0.489650000000     0.991950000000     0.0216848  
C171     C      0.700510000000     0.520550000000     0.976420000000    -0.06055    
C172     C      0.660650000000     0.520410000000     0.975940000000     0.0171184  
C173     C      0.640190000000     0.489620000000     0.991450000000    -0.0875     
C174     C      0.660460000000     0.458880000000     0.007320000000     0.0173568  
C175     C      0.763430000000     0.489610000000     0.992000000000     0.0216217  
C176     C      0.783900000000     0.473810000000     0.022730000000    -0.0601237  
C177     C      0.823770000000     0.473640000000     0.022660000000     0.0173272  
C178     C      0.844160000000     0.489730000000     0.992110000000    -0.0872646  
C179     C      0.823810000000     0.505720000000     0.961490000000     0.0170759  
C180     C      0.783950000000     0.505420000000     0.961310000000    -0.0604237  
C181     C      0.200280000000     0.506360000000     0.022900000000    -0.0601486  
C182     C      0.220750000000     0.490670000000     0.992110000000     0.0216196  
C183     C      0.200240000000     0.475030000000     0.961330000000    -0.0603771  
C184     C      0.160380000000     0.474780000000     0.961480000000     0.0170449  
C185     C      0.140030000000     0.490640000000     0.992160000000    -0.0871444  
C186     C      0.160400000000     0.506570000000     0.022800000000     0.0172899  
C187     C      0.263260000000     0.490600000000     0.992080000000     0.0217001  
C188     C      0.283860000000     0.521400000000     0.007580000000    -0.0602681  
C189     C      0.323740000000     0.521260000000     0.007570000000     0.0174126  
C190     C      0.343990000000     0.490560000000     0.991610000000    -0.0876205  
C191     C      0.323510000000     0.459840000000     0.975990000000     0.0171482  
C192     C      0.283650000000     0.459730000000     0.976460000000    -0.060568   
C193     C      0.959690000000     0.475580000000     0.700520000000    -0.0605605  
C194     C      0.991160000000     0.490020000000     0.720690000000     0.0213647  
C195     C      0.022430000000     0.504540000000     0.700250000000    -0.0602887  
C196     C      0.022100000000     0.504900000000     0.660360000000     0.0169412  
C197     C      0.990750000000     0.490170000000     0.640100000000    -0.0862914  
C198     C      0.959610000000     0.475350000000     0.660630000000     0.0166947  
C199     C      0.991350000000     0.490000000000     0.762970000000     0.0216704  
C200     C      0.960000000000     0.504320000000     0.783410000000    -0.0610653  
C201     C      0.960300000000     0.504630000000     0.823300000000     0.0169876  
C202     C      0.991710000000     0.490030000000     0.843560000000    -0.0874544  
C203     C      0.022950000000     0.475410000000     0.823040000000     0.0171879  
C204     C      0.022890000000     0.475690000000     0.783140000000    -0.0607926  
C205     C      0.960110000000     0.475840000000     0.200800000000    -0.0609967  
C206     C      0.991320000000     0.490470000000     0.221240000000     0.021653   
C207     C      0.022710000000     0.505100000000     0.201070000000    -0.060757   
C208     C      0.022770000000     0.505380000000     0.161170000000     0.0171651  
C209     C      0.991690000000     0.490430000000     0.140650000000    -0.0873299  
C210     C      0.960420000000     0.475520000000     0.160910000000     0.0169328  
C211     C      0.991140000000     0.490450000000     0.263520000000     0.0213657  
C212     C      0.959530000000     0.504610000000     0.283700000000    -0.0605378  
C213     C      0.959450000000     0.504830000000     0.323590000000     0.0166551  
C214     C      0.990730000000     0.490290000000     0.344110000000    -0.0862579  
C215     C      0.022210000000     0.475850000000     0.323850000000     0.0169522  
C216     C      0.022540000000     0.476230000000     0.283960000000    -0.0603148  
C217     C      0.973660000000     0.781880000000     0.460340000000    -0.0600988  
C218     C      0.989290000000     0.761610000000     0.491290000000     0.0215628  
C219     C      0.004690000000     0.782340000000     0.522050000000    -0.0598421  
C220     C      0.004680000000     0.822220000000     0.521740000000     0.0170171  
C221     C      0.988800000000     0.842370000000     0.490920000000    -0.0864234  
C222     C      0.973190000000     0.821760000000     0.460280000000     0.0167827  
C223     C      0.989510000000     0.719070000000     0.491500000000     0.0217106  
C224     C      0.958910000000     0.698350000000     0.475770000000    -0.0603401  
C225     C      0.959240000000     0.658480000000     0.475690000000     0.0169714  
C226     C      0.989920000000     0.638310000000     0.491800000000    -0.0869406  
C227     C      0.020380000000     0.658890000000     0.507790000000     0.0171831  
C228     C      0.020310000000     0.698780000000     0.507410000000    -0.0600769  
C229     C      0.003850000000     0.198410000000     0.459870000000    -0.0598495  
C230     C      0.988470000000     0.218820000000     0.490860000000     0.0215725  
C231     C      0.972800000000     0.198230000000     0.521570000000    -0.06008    
C232     C      0.972320000000     0.158350000000     0.521210000000     0.0167527  
C233     C      0.987980000000     0.138060000000     0.490370000000    -0.086395   
C234     C      0.003840000000     0.158530000000     0.459760000000     0.0170741  
C235     C      0.988820000000     0.261360000000     0.491150000000     0.021726   
C236     C      0.019690000000     0.281720000000     0.475480000000    -0.060098   
C237     C      0.019890000000     0.321600000000     0.475530000000     0.0172856  
C238     C      0.989490000000     0.342120000000     0.491710000000    -0.0870753  
C239     C      0.958750000000     0.321880000000     0.507630000000     0.0169985  
C240     C      0.958290000000     0.282010000000     0.507120000000    -0.0603403  
C241     C      0.696640000000     0.003620000000     0.457270000000    -0.0601594  
C242     C      0.716770000000     0.989660000000     0.488980000000     0.0213955  
C243     C      0.696280000000     0.975650000000     0.520450000000    -0.0605071  
C244     C      0.656380000000     0.975330000000     0.520080000000     0.0166135  
C245     C      0.636160000000     0.989610000000     0.488500000000    -0.0860463  
C246     C      0.656740000000     0.003910000000     0.457150000000     0.0167968  
C247     C      0.759070000000     0.989700000000     0.489250000000     0.0216769  
C248     C      0.779590000000     0.974850000000     0.458190000000    -0.0608319  
C249     C      0.819480000000     0.974590000000     0.458570000000     0.0169085  
C250     C      0.839670000000     0.989780000000     0.489750000000    -0.0866973  
C251     C      0.819070000000     0.004920000000     0.520680000000     0.0171783  
C252     C      0.779170000000     0.004580000000     0.520570000000    -0.060572   
C253     C      0.196590000000     0.005070000000     0.458090000000    -0.0604865  
C254     C      0.217090000000     0.990510000000     0.489300000000     0.0216548  
C255     C      0.196960000000     0.975980000000     0.520760000000    -0.0607836  
C256     C      0.157060000000     0.975700000000     0.520880000000     0.0168889  
C257     C      0.136480000000     0.990550000000     0.489790000000    -0.0866786  
C258     C      0.156690000000     0.005390000000     0.458460000000     0.0171197  
C259     C      0.259380000000     0.990480000000     0.489030000000     0.0213622  
C260     C      0.279500000000     0.976190000000     0.457450000000    -0.0604083  
C261     C      0.319400000000     0.975850000000     0.457330000000     0.0165328  
C262     C      0.339990000000     0.990410000000     0.488540000000    -0.0859374  
C263     C      0.319790000000     0.005020000000     0.520000000000     0.0167584  
C264     C      0.279900000000     0.004750000000     0.520360000000    -0.0601447  
C265     C      0.977230000000     0.781520000000     0.021910000000    -0.0606314  
C266     C      0.991960000000     0.761140000000     0.990710000000     0.0213967  
C267     C      0.006400000000     0.781390000000     0.959270000000    -0.0606111  
C268     C      0.006390000000     0.821290000000     0.959170000000     0.0171865  
C269     C      0.991310000000     0.841740000000     0.990240000000    -0.0872458  
C270     C      0.976620000000     0.821400000000     0.021560000000     0.0171536  
C271     C      0.992130000000     0.718850000000     0.990920000000     0.0211476  
C272     C      0.006360000000     0.698750000000     0.022540000000    -0.0599736  
C273     C      0.006630000000     0.658850000000     0.022700000000     0.0171177  
C274     C      0.992070000000     0.638250000000     0.991490000000    -0.0863628  
C275     C      0.977590000000     0.658440000000     0.959970000000     0.0166387  
C276     C      0.977910000000     0.698330000000     0.959570000000    -0.0605217  
C277     C      0.977870000000     0.199260000000     0.960140000000    -0.0609194  
C278     C      0.992640000000     0.219280000000     0.991550000000     0.0214386  
C279     C      0.007120000000     0.198690000000     0.022740000000    -0.0603548  
C280     C      0.007080000000     0.158780000000     0.022410000000     0.0174813  
C281     C      0.991960000000     0.138680000000     0.991140000000    -0.0873195  
C282     C      0.977240000000     0.159370000000     0.960060000000     0.0169582  
C283     C      0.992830000000     0.261570000000     0.991800000000     0.0211481  
C284     C      0.007040000000     0.282000000000     0.960390000000    -0.06023    
C285     C      0.007300000000     0.321900000000     0.960640000000     0.0168576  
C286     C      0.992760000000     0.342180000000     0.992070000000    -0.0863693  
C287     C      0.978310000000     0.321660000000     0.023390000000     0.0168947  
C288     C      0.978650000000     0.281760000000     0.023390000000    -0.0602722  
C289     C      0.698240000000     0.975110000000     0.019970000000    -0.0600322  
C290     C      0.718890000000     0.990480000000     0.989160000000     0.0213552  
C291     C      0.698570000000     0.005810000000     0.958100000000    -0.0600592  
C292     C      0.658680000000     0.005940000000     0.957960000000     0.0169075  
C293     C      0.638130000000     0.990360000000     0.988660000000    -0.0870927  
C294     C      0.658360000000     0.974850000000     0.019620000000     0.0168688  
C295     C      0.761410000000     0.990500000000     0.989410000000     0.0212869  
C296     C      0.781980000000     0.021320000000     0.973930000000    -0.0598466  
C297     C      0.821860000000     0.021220000000     0.973960000000     0.0168883  
C298     C      0.842170000000     0.990520000000     0.989880000000    -0.0865692  
C299     C      0.821690000000     0.959820000000     0.005570000000     0.0169003  
C300     C      0.781810000000     0.959700000000     0.005140000000    -0.0598527  
C301     C      0.198350000000     0.005220000000     0.020330000000    -0.0596357  
C302     C      0.218660000000     0.989820000000     0.989290000000     0.0213325  
C303     C      0.197980000000     0.974410000000     0.958510000000    -0.0601455  
C304     C      0.158100000000     0.974220000000     0.958860000000     0.0167942  
C305     C      0.137900000000     0.989840000000     0.989770000000    -0.0866944  
C306     C      0.158470000000     0.005440000000     0.020450000000     0.0172894  
C307     C      0.261180000000     0.989860000000     0.989010000000     0.0214348  
C308     C      0.281740000000     0.020650000000     0.004580000000    -0.0598129  
C309     C      0.321610000000     0.020590000000     0.004550000000     0.0174069  
C310     C      0.341940000000     0.989960000000     0.988510000000    -0.0872298  
C311     C      0.321500000000     0.959290000000     0.972720000000     0.0169077  
C312     C      0.281620000000     0.959130000000     0.973170000000    -0.0603435  
C313     C      0.003660000000     0.959840000000     0.781940000000    -0.0603797  
C314     C      0.988000000000     0.990680000000     0.761560000000     0.0214144  
C315     C      0.972440000000     0.021470000000     0.782120000000    -0.0603229  
C316     C      0.972440000000     0.021350000000     0.821990000000     0.0174394  
C317     C      0.988430000000     0.990670000000     0.842250000000    -0.0879948  
C318     C      0.004090000000     0.959950000000     0.821790000000     0.017439   
C319     C      0.987990000000     0.990740000000     0.719080000000     0.0214323  
C320     C      0.018910000000     0.975330000000     0.698600000000    -0.06046    
C321     C      0.018780000000     0.975060000000     0.658750000000     0.017504   
C322     C      0.987980000000     0.990660000000     0.638380000000    -0.0882823  
C323     C      0.957200000000     0.006340000000     0.658730000000     0.0174988  
C324     C      0.957090000000     0.006170000000     0.698600000000    -0.0604264  
C325     C      0.957200000000     0.974240000000     0.281890000000    -0.0606661  
C326     C      0.988060000000     0.989760000000     0.261420000000     0.0214702  
C327     C      0.018930000000     0.005260000000     0.281900000000    -0.0602267  
C328     C      0.018790000000     0.005530000000     0.321750000000     0.017822   
C329     C      0.988030000000     0.989820000000     0.342110000000    -0.0883582  
C330     C      0.957310000000     0.974040000000     0.321760000000     0.0172811  
C331     C      0.988090000000     0.989800000000     0.218930000000     0.0214471  
C332     C      0.972480000000     0.959040000000     0.198370000000    -0.0606086  
C333     C      0.972460000000     0.959160000000     0.158500000000     0.0173066  
C334     C      0.988520000000     0.989800000000     0.138230000000    -0.0881135  
C335     C      0.004260000000     0.020480000000     0.158680000000     0.0178007  
C336     C      0.003810000000     0.020610000000     0.198530000000    -0.0601433  
H1       H      0.546650000000     0.517890000000     0.766740000000     0.0479829  
H2       H      0.546580000000     0.518540000000     0.836180000000     0.0420313  
H3       H      0.436610000000     0.462790000000     0.836660000000     0.0420841  
H4       H      0.435860000000     0.463560000000     0.767250000000     0.0479939  
H5       H      0.463880000000     0.435240000000     0.713090000000     0.0479875  
H6       H      0.462820000000     0.435550000000     0.643670000000     0.0420784  
H7       H      0.518540000000     0.545540000000     0.643230000000     0.0420538  
H8       H      0.518180000000     0.546050000000     0.712670000000     0.047965   
H9       H      0.518570000000     0.434010000000     0.212900000000     0.0479879  
H10      H      0.519650000000     0.434580000000     0.143460000000     0.0420996  
H11      H      0.464020000000     0.544620000000     0.143440000000     0.0421532  
H12      H      0.464340000000     0.544850000000     0.212860000000     0.0480164  
H13      H      0.546490000000     0.462170000000     0.267290000000     0.0480063  
H14      H      0.545710000000     0.461500000000     0.336720000000     0.0421333  
H15      H      0.435690000000     0.517170000000     0.336090000000     0.0421259  
H16      H      0.435670000000     0.516430000000     0.266660000000     0.0479828  
H17      H      0.460880000000     0.767080000000     0.432270000000     0.0478306  
H18      H      0.459750000000     0.836530000000     0.432890000000     0.0413184  
H19      H      0.516200000000     0.836540000000     0.542490000000     0.0414066  
H20      H      0.515830000000     0.767140000000     0.542770000000     0.0477861  
H21      H      0.544320000000     0.713510000000     0.514410000000     0.047855   
H22      H      0.544320000000     0.644120000000     0.515530000000     0.0411825  
H23      H      0.434300000000     0.643090000000     0.459890000000     0.0411851  
H24      H      0.433420000000     0.712550000000     0.460280000000     0.0478472  
H25      H      0.462090000000     0.212920000000     0.543690000000     0.0477896  
H26      H      0.460830000000     0.143510000000     0.543090000000     0.041381   
H27      H      0.517300000000     0.143330000000     0.433500000000     0.0413944  
H28      H      0.517060000000     0.212780000000     0.433190000000     0.0478405  
H29      H      0.545300000000     0.266740000000     0.461460000000     0.047874   
H30      H      0.545260000000     0.336210000000     0.461080000000     0.0411873  
H31      H      0.435230000000     0.336510000000     0.516680000000     0.0411965  
H32      H      0.434380000000     0.267120000000     0.515560000000     0.0478539  
H33      H      0.436300000000     0.766050000000     0.962870000000     0.0485365  
H34      H      0.435690000000     0.835760000000     0.962650000000     0.0411743  
H35      H      0.547740000000     0.836780000000     0.014220000000     0.0414305  
H36      H      0.548360000000     0.766990000000     0.013970000000     0.0486639  
H37      H      0.548230000000     0.713700000000     0.962330000000     0.0486     
H38      H      0.548350000000     0.643900000000     0.962400000000     0.0410905  
H39      H      0.437050000000     0.643970000000     0.015570000000     0.0411654  
H40      H      0.436920000000     0.713680000000     0.015040000000     0.0486127  
H41      H      0.435390000000     0.214010000000     0.012220000000     0.048603   
H42      H      0.435060000000     0.144290000000     0.012660000000     0.0412241  
H43      H      0.547110000000     0.143550000000     0.961110000000     0.0413894  
H44      H      0.547450000000     0.213340000000     0.961140000000     0.0486266  
H45      H      0.547340000000     0.266130000000     0.013130000000     0.0486487  
H46      H      0.547440000000     0.335880000000     0.014140000000     0.0411349  
H47      H      0.436120000000     0.336640000000     0.961000000000     0.0411311  
H48      H      0.436020000000     0.266880000000     0.960460000000     0.0485521  
H49      H      0.462030000000     0.933600000000     0.764970000000     0.0486451  
H50      H      0.462350000000     0.933620000000     0.834740000000     0.0417335  
H51      H      0.514700000000     0.045310000000     0.834280000000     0.0417254  
H52      H      0.513920000000     0.045300000000     0.764560000000     0.0486299  
H53      H      0.461960000000     0.045370000000     0.712000000000     0.0486499  
H54      H      0.461750000000     0.045510000000     0.642260000000     0.0410579  
H55      H      0.513760000000     0.933660000000     0.642050000000     0.041049   
H56      H      0.513510000000     0.933520000000     0.711800000000     0.0486322  
H57      H      0.462690000000     0.046810000000     0.211280000000     0.0486493  
H58      H      0.463020000000     0.046840000000     0.141500000000     0.0417343  
H59      H      0.513800000000     0.934420000000     0.141900000000     0.0417345  
H60      H      0.513000000000     0.934390000000     0.211620000000     0.0486509  
H61      H      0.461020000000     0.935050000000     0.264200000000     0.048664   
H62      H      0.460840000000     0.934880000000     0.333950000000     0.0410827  
H63      H      0.514520000000     0.045940000000     0.334180000000     0.0410998  
H64      H      0.514230000000     0.046120000000     0.264420000000     0.0486463  
H65      H      0.766640000000     0.546260000000     0.466110000000     0.048592   
H66      H      0.836400000000     0.546170000000     0.465860000000     0.0410493  
H67      H      0.836260000000     0.434860000000     0.519030000000     0.0410603  
H68      H      0.766510000000     0.434940000000     0.518810000000     0.0485701  
H69      H      0.714010000000     0.434570000000     0.466590000000     0.0486019  
H70      H      0.644280000000     0.434540000000     0.465770000000     0.0411301  
H71      H      0.643760000000     0.546530000000     0.517480000000     0.0411211  
H72      H      0.713530000000     0.546560000000     0.517840000000     0.0486047  
H73      H      0.214030000000     0.545810000000     0.517720000000     0.048649   
H74      H      0.144280000000     0.545980000000     0.517940000000     0.0410492  
H75      H      0.144030000000     0.433670000000     0.466930000000     0.0410653  
H76      H      0.213780000000     0.433490000000     0.467190000000     0.0486076  
H77      H      0.266890000000     0.434170000000     0.518970000000     0.0486121  
H78      H      0.336660000000     0.434120000000     0.518610000000     0.0411283  
H79      H      0.336260000000     0.545020000000     0.464600000000     0.0411377  
H80      H      0.266530000000     0.545090000000     0.465450000000     0.0485731  
H81      H      0.715270000000     0.545170000000     0.964990000000     0.0477956  
H82      H      0.645880000000     0.544700000000     0.963790000000     0.0411834  
H83      H      0.645530000000     0.434590000000     0.019250000000     0.0412242  
H84      H      0.714990000000     0.434170000000     0.018930000000     0.0478565  
H85      H      0.769170000000     0.461990000000     0.047190000000     0.0478048  
H86      H      0.838620000000     0.461340000000     0.046830000000     0.041303   
H87      H      0.838670000000     0.518050000000     0.937360000000     0.0413385  
H88      H      0.769270000000     0.517190000000     0.936810000000     0.0477813  
H89      H      0.214930000000     0.463360000000     0.936780000000     0.0477767  
H90      H      0.145530000000     0.462570000000     0.937280000000     0.0414007  
H91      H      0.145560000000     0.518760000000     0.047020000000     0.041358   
H92      H      0.215000000000     0.518050000000     0.047410000000     0.0478476  
H93      H      0.269230000000     0.545980000000     0.019260000000     0.0478517  
H94      H      0.338680000000     0.545510000000     0.019580000000     0.0411953  
H95      H      0.338260000000     0.435580000000     0.963760000000     0.0411649  
H96      H      0.268870000000     0.435160000000     0.964940000000     0.0477997  
H97      H      0.046940000000     0.516070000000     0.715160000000     0.0486724  
H98      H      0.046580000000     0.516420000000     0.645410000000     0.0418211  
H99      H      0.934980000000     0.463880000000     0.645880000000     0.041805   
H100     H      0.935330000000     0.464000000000     0.715630000000     0.0486606  
H101     H      0.935440000000     0.515740000000     0.768510000000     0.0486507  
H102     H      0.935750000000     0.516000000000     0.838260000000     0.0410664  
H103     H      0.047630000000     0.464060000000     0.837790000000     0.0410407  
H104     H      0.047320000000     0.464270000000     0.768030000000     0.0486624  
H105     H      0.047020000000     0.516770000000     0.216180000000     0.0486774  
H106     H      0.047330000000     0.516980000000     0.146420000000     0.0410822  
H107     H      0.935990000000     0.463900000000     0.145960000000     0.041118   
H108     H      0.935670000000     0.464170000000     0.215710000000     0.0486565  
H109     H      0.935060000000     0.515950000000     0.268590000000     0.0486733  
H110     H      0.934720000000     0.516060000000     0.338340000000     0.0418077  
H111     H      0.046800000000     0.464560000000     0.338800000000     0.0418059  
H112     H      0.047150000000     0.464930000000     0.269050000000     0.0487038  
H113     H      0.016330000000     0.767820000000     0.546710000000     0.0479497  
H114     H      0.016670000000     0.837250000000     0.545940000000     0.0418815  
H115     H      0.961020000000     0.836420000000     0.435940000000     0.041869   
H116     H      0.962200000000     0.767000000000     0.435810000000     0.0479286  
H117     H      0.934360000000     0.712880000000     0.463910000000     0.0478796  
H118     H      0.935160000000     0.643470000000     0.463420000000     0.0414184  
H119     H      0.044600000000     0.644200000000     0.520160000000     0.0413649  
H120     H      0.044710000000     0.713650000000     0.519150000000     0.0478873  
H121     H      0.961330000000     0.212850000000     0.546250000000     0.0479227  
H122     H      0.960160000000     0.143440000000     0.545400000000     0.0418929  
H123     H      0.015860000000     0.143750000000     0.435410000000     0.0418853  
H124     H      0.015510000000     0.213180000000     0.435370000000     0.0479792  
H125     H      0.044050000000     0.266900000000     0.463580000000     0.0479038  
H126     H      0.044160000000     0.336330000000     0.463300000000     0.0413726  
H127     H      0.934720000000     0.336850000000     0.520050000000     0.0413581  
H128     H      0.933690000000     0.267430000000     0.518820000000     0.0478685  
H129     H      0.711140000000     0.964500000000     0.545160000000     0.0486937  
H130     H      0.641390000000     0.964220000000     0.544730000000     0.0418109  
H131     H      0.642030000000     0.015010000000     0.432340000000     0.0418374  
H132     H      0.711790000000     0.014800000000     0.432740000000     0.0487581  
H133     H      0.764740000000     0.962990000000     0.433810000000     0.0486719  
H134     H      0.834500000000     0.962820000000     0.434250000000     0.0412526  
H135     H      0.833770000000     0.016740000000     0.545180000000     0.041255   
H136     H      0.764000000000     0.016410000000     0.544760000000     0.0487722  
H137     H      0.212110000000     0.964370000000     0.545080000000     0.0486647  
H138     H      0.142350000000     0.964160000000     0.545500000000     0.0412498  
H139     H      0.141700000000     0.016930000000     0.434020000000     0.0412978  
H140     H      0.211450000000     0.016660000000     0.433580000000     0.0487311  
H141     H      0.264330000000     0.964800000000     0.433030000000     0.0486728  
H142     H      0.334090000000     0.964490000000     0.432620000000     0.0418125  
H143     H      0.334800000000     0.016340000000     0.544530000000     0.0418942  
H144     H      0.265050000000     0.016160000000     0.544960000000     0.0487667  
H145     H      0.018130000000     0.766330000000     0.934960000000     0.0487135  
H146     H      0.017830000000     0.836110000000     0.934570000000     0.0411512  
H147     H      0.964910000000     0.836290000000     0.045980000000     0.0411394  
H148     H      0.965700000000     0.766560000000     0.046390000000     0.0486     
H149     H      0.017700000000     0.713930000000     0.046970000000     0.0487596  
H150     H      0.017910000000     0.644160000000     0.047450000000     0.041819   
H151     H      0.966280000000     0.643420000000     0.935430000000     0.0418148  
H152     H      0.966550000000     0.713180000000     0.934950000000     0.0486449  
H153     H      0.018880000000     0.213480000000     0.047210000000     0.0487237  
H154     H      0.018540000000     0.143700000000     0.046840000000     0.0411719  
H155     H      0.965490000000     0.144750000000     0.935490000000     0.0411269  
H156     H      0.966310000000     0.214480000000     0.935840000000     0.0486191  
H157     H      0.018350000000     0.267080000000     0.935790000000     0.0487581  
H158     H      0.018540000000     0.336830000000     0.936030000000     0.0418602  
H159     H      0.967010000000     0.336430000000     0.048090000000     0.0417852  
H160     H      0.967300000000     0.266660000000     0.047860000000     0.0486781  
H161     H      0.713420000000     0.017280000000     0.933560000000     0.0479667  
H162     H      0.643980000000     0.017870000000     0.933520000000     0.041857   
H163     H      0.643410000000     0.962880000000     0.043880000000     0.0419026  
H164     H      0.712820000000     0.963680000000     0.044700000000     0.0479257  
H165     H      0.767320000000     0.045850000000     0.962180000000     0.0478813  
H166     H      0.836760000000     0.045470000000     0.961890000000     0.0420499  
H167     H      0.836460000000     0.935570000000     0.017800000000     0.0420904  
H168     H      0.767030000000     0.935160000000     0.016710000000     0.0479282  
H169     H      0.212540000000     0.962930000000     0.933800000000     0.0479412  
H170     H      0.143120000000     0.962230000000     0.934620000000     0.0419544  
H171     H      0.143780000000     0.017440000000     0.044860000000     0.0419656  
H172     H      0.213210000000     0.016700000000     0.044860000000     0.0479892  
H173     H      0.267070000000     0.045140000000     0.016400000000     0.0479094  
H174     H      0.336490000000     0.044810000000     0.016690000000     0.0415186  
H175     H      0.336290000000     0.935110000000     0.960400000000     0.0414483  
H176     H      0.266860000000     0.934610000000     0.961540000000     0.047875   
H177     H      0.960730000000     0.046020000000     0.767460000000     0.0477313  
H178     H      0.960390000000     0.045590000000     0.836920000000     0.041192   
H179     H      0.016340000000     0.935710000000     0.836560000000     0.0412136  
H180     H      0.015230000000     0.935290000000     0.767170000000     0.0477436  
H181     H      0.043530000000     0.963850000000     0.713320000000     0.0477287  
H182     H      0.043100000000     0.963040000000     0.643920000000     0.0411139  
H183     H      0.932880000000     0.018330000000     0.643870000000     0.0411143  
H184     H      0.932480000000     0.017680000000     0.713320000000     0.0477863  
H185     H      0.043530000000     0.016800000000     0.267200000000     0.0477637  
H186     H      0.043060000000     0.017630000000     0.336600000000     0.0410446  
H187     H      0.933040000000     0.961980000000     0.336610000000     0.0410074  
H188     H      0.932620000000     0.962660000000     0.267170000000     0.0477422  
H189     H      0.960730000000     0.934510000000     0.213020000000     0.0477415  
H190     H      0.960360000000     0.934940000000     0.143570000000     0.0411111  
H191     H      0.016550000000     0.044690000000     0.143900000000     0.0411286  
H192     H      0.015410000000     0.045150000000     0.213290000000     0.0477527  
O1       O      0.990040000000     0.990220000000     0.990250000000    -0.364565   
O2       O      0.967030000000     0.967120000000     0.077960000000    -0.291407   
O3       O      0.077980000000     0.011290000000     0.013490000000    -0.289924   
O4       O      0.012570000000     0.902010000000     0.967090000000    -0.290323   
O5       O      0.011450000000     0.012290000000     0.078520000000    -0.291649   
O6       O      0.968640000000     0.901660000000     0.012710000000    -0.291014   
O7       O      0.077700000000     0.968590000000     0.966620000000    -0.290523   
O8       O      0.967380000000     0.013730000000     0.902550000000    -0.291076   
O9       O      0.013110000000     0.078170000000     0.013690000000    -0.290198   
O10      O      0.010960000000     0.967750000000     0.901970000000    -0.291847   
O11      O      0.969120000000     0.079010000000     0.968150000000    -0.29126    
O12      O      0.902340000000     0.014100000000     0.968980000000    -0.290146   
O13      O      0.902130000000     0.966830000000     0.011260000000    -0.290111   
O14      O      0.988070000000     0.990220000000     0.490240000000    -0.364202   
O15      O      0.076510000000     0.968500000000     0.512880000000    -0.290508   
O16      O      0.010760000000     0.012000000000     0.402060000000    -0.291571   
O17      O      0.966500000000     0.902190000000     0.467780000000    -0.290356   
O18      O      0.076250000000     0.012490000000     0.467290000000    -0.290363   
O19      O      0.010480000000     0.902640000000     0.513470000000    -0.290189   
O20      O      0.965300000000     0.967910000000     0.402170000000    -0.29197    
O21      O      0.899620000000     0.012170000000     0.512590000000    -0.290229   
O22      O      0.009900000000     0.078050000000     0.467360000000    -0.290067   
O23      O      0.899920000000     0.967640000000     0.467520000000    -0.290571   
O24      O      0.965850000000     0.077980000000     0.512990000000    -0.290395   
O25      O      0.964820000000     0.012090000000     0.578300000000    -0.291625   
O26      O      0.011150000000     0.968910000000     0.578430000000    -0.291838   
O27      O      0.992100000000     0.490210000000     0.992120000000    -0.363864   
O28      O      0.014200000000     0.402370000000     0.969020000000    -0.289742   
O29      O      0.969140000000     0.468370000000     0.080520000000    -0.291378   
O30      O      0.079950000000     0.512630000000     0.014870000000    -0.290704   
O31      O      0.970770000000     0.402140000000     0.015230000000    -0.289698   
O32      O      0.080060000000     0.468380000000     0.969480000000    -0.291146   
O33      O      0.014750000000     0.512290000000     0.080610000000    -0.290928   
O34      O      0.970260000000     0.578060000000     0.968800000000    -0.290026   
O35      O      0.904230000000     0.467570000000     0.014650000000    -0.290828   
O36      O      0.013720000000     0.578280000000     0.014980000000    -0.28936    
O37      O      0.904120000000     0.512230000000     0.969670000000    -0.291182   
O38      O      0.968890000000     0.511780000000     0.903700000000    -0.291527   
O39      O      0.015030000000     0.468440000000     0.903600000000    -0.291021   
O40      O      0.990250000000     0.490210000000     0.492120000000    -0.363753   
O41      O      0.967360000000     0.402230000000     0.514260000000    -0.290961   
O42      O      0.013570000000     0.468500000000     0.404250000000    -0.289821   
O43      O      0.901900000000     0.513110000000     0.470260000000    -0.291591   
O44      O      0.012470000000     0.402120000000     0.469760000000    -0.290682   
O45      O      0.901910000000     0.467560000000     0.514250000000    -0.291551   
O46      O      0.967310000000     0.511870000000     0.404110000000    -0.290012   
O47      O      0.012760000000     0.578380000000     0.514180000000    -0.290483   
O48      O      0.078560000000     0.466890000000     0.470660000000    -0.291506   
O49      O      0.967590000000     0.578130000000     0.469720000000    -0.291106   
O50      O      0.078600000000     0.513230000000     0.513820000000    -0.291523   
O51      O      0.013410000000     0.512130000000     0.579960000000    -0.289828   
O52      O      0.967510000000     0.468380000000     0.580110000000    -0.290057   
O53      O      0.490030000000     0.990100000000     0.988100000000    -0.364108   
O54      O      0.401950000000     0.966840000000     0.966660000000    -0.290918   
O55      O      0.467760000000     0.014000000000     0.075800000000    -0.289786   
O56      O      0.514060000000     0.902160000000     0.010180000000    -0.290547   
O57      O      0.402060000000     0.013200000000     0.009850000000    -0.290583   
O58      O      0.467760000000     0.901570000000     0.966950000000    -0.291509   
O59      O      0.510700000000     0.967370000000     0.076390000000    -0.290697   
O60      O      0.578120000000     0.011090000000     0.964490000000    -0.290675   
O61      O      0.467570000000     0.078650000000     0.008920000000    -0.291347   
O62      O      0.577980000000     0.969340000000     0.012160000000    -0.290718   
O63      O      0.513820000000     0.078010000000     0.965640000000    -0.29079    
O64      O      0.511070000000     0.012500000000     0.899810000000    -0.290482   
O65      O      0.467520000000     0.966430000000     0.900410000000    -0.290102   
O66      O      0.488070000000     0.989980000000     0.488090000000    -0.363689   
O67      O      0.399940000000     0.968460000000     0.465260000000    -0.289752   
O68      O      0.466310000000     0.012910000000     0.576550000000    -0.291222   
O69      O      0.510130000000     0.902020000000     0.510410000000    -0.291268   
O70      O      0.400230000000     0.012110000000     0.511260000000    -0.289621   
O71      O      0.465630000000     0.902120000000     0.465270000000    -0.29099    
O72      O      0.509580000000     0.966700000000     0.576520000000    -0.291483   
O73      O      0.576200000000     0.011310000000     0.465030000000    -0.2896     
O74      O      0.466350000000     0.078010000000     0.510770000000    -0.291118   
O75      O      0.575950000000     0.968070000000     0.511420000000    -0.289881   
O76      O      0.510810000000     0.077770000000     0.465590000000    -0.291141   
O77      O      0.509930000000     0.012910000000     0.399690000000    -0.290993   
O78      O      0.465880000000     0.967410000000     0.399670000000    -0.291199   
O79      O      0.492110000000     0.490090000000     0.989930000000    -0.364073   
O80      O      0.403710000000     0.467850000000     0.968810000000    -0.291928   
O81      O      0.470870000000     0.513350000000     0.077820000000    -0.290489   
O82      O      0.514470000000     0.401450000000     0.010750000000    -0.291193   
O83      O      0.404320000000     0.513390000000     0.012840000000    -0.29102    
O84      O      0.468880000000     0.402240000000     0.966790000000    -0.291      
O85      O      0.513220000000     0.466160000000     0.077780000000    -0.290137   
O86      O      0.580460000000     0.512300000000     0.968670000000    -0.291798   
O87      O      0.469950000000     0.578550000000     0.011440000000    -0.291398   
O88      O      0.579890000000     0.466800000000     0.012770000000    -0.290847   
O89      O      0.515510000000     0.578140000000     0.967440000000    -0.290777   
O90      O      0.515420000000     0.511740000000     0.902050000000    -0.290123   
O91      O      0.468440000000     0.469150000000     0.902090000000    -0.290419   
O92      O      0.490240000000     0.489990000000     0.489930000000    -0.363963   
O93      O      0.401720000000     0.512010000000     0.468500000000    -0.291621   
O94      O      0.467860000000     0.401760000000     0.511530000000    -0.292043   
O95      O      0.514020000000     0.468360000000     0.402220000000    -0.29031    
O96      O      0.402330000000     0.466930000000     0.513000000000    -0.290959   
O97      O      0.466830000000     0.510720000000     0.401890000000    -0.29027    
O98      O      0.513390000000     0.402030000000     0.467490000000    -0.29118    
O99      O      0.578140000000     0.513590000000     0.512500000000    -0.29095    
O100     O      0.469120000000     0.466890000000     0.577940000000    -0.290306   
O101     O      0.578780000000     0.467500000000     0.469050000000    -0.291639   
O102     O      0.511680000000     0.513890000000     0.577660000000    -0.290338   
O103     O      0.512260000000     0.578520000000     0.510730000000    -0.291929   
O104     O      0.466800000000     0.577620000000     0.466620000000    -0.291219   
Zn1      Zn     0.957870000000     0.957370000000     0.022050000000     0.449054   
Zn2      Zn     0.022240000000     0.022050000000     0.023020000000     0.449629   
Zn3      Zn     0.021880000000     0.958050000000     0.957450000000     0.449152   
Zn4      Zn     0.958150000000     0.023380000000     0.958480000000     0.449025   
Zn5      Zn     0.020650000000     0.958500000000     0.522770000000     0.449107   
Zn6      Zn     0.020330000000     0.022280000000     0.457730000000     0.449434   
Zn7      Zn     0.955850000000     0.957900000000     0.457920000000     0.448774   
Zn8      Zn     0.955470000000     0.022180000000     0.522530000000     0.448962   
Zn9      Zn     0.024380000000     0.458260000000     0.959480000000     0.448732   
Zn10     Zn     0.960030000000     0.457960000000     0.024680000000     0.448685   
Zn11     Zn     0.024160000000     0.522450000000     0.024740000000     0.448758   
Zn12     Zn     0.959810000000     0.522180000000     0.959540000000     0.448649   
Zn13     Zn     0.957720000000     0.458040000000     0.524300000000     0.448652   
Zn14     Zn     0.022770000000     0.457880000000     0.460110000000     0.448941   
Zn15     Zn     0.957710000000     0.522350000000     0.459940000000     0.448693   
Zn16     Zn     0.022790000000     0.522580000000     0.524090000000     0.448726   
Zn17     Zn     0.457750000000     0.957180000000     0.956450000000     0.448533   
Zn18     Zn     0.457830000000     0.023070000000     0.019760000000     0.449243   
Zn19     Zn     0.522230000000     0.958180000000     0.020790000000     0.448852   
Zn20     Zn     0.522350000000     0.021960000000     0.955420000000     0.448668   
Zn21     Zn     0.455770000000     0.957950000000     0.455520000000     0.44834    
Zn22     Zn     0.456140000000     0.022310000000     0.520710000000     0.448795   
Zn23     Zn     0.520040000000     0.957680000000     0.520670000000     0.44866    
Zn24     Zn     0.520370000000     0.021990000000     0.455530000000     0.448807   
Zn25     Zn     0.459240000000     0.458270000000     0.957840000000     0.449173   
Zn26     Zn     0.460290000000     0.522930000000     0.022080000000     0.449371   
Zn27     Zn     0.523940000000     0.457050000000     0.021920000000     0.448956   
Zn28     Zn     0.524920000000     0.522110000000     0.957910000000     0.448727   
Zn29     Zn     0.457330000000     0.521590000000     0.457630000000     0.449019   
Zn30     Zn     0.458340000000     0.457350000000     0.522200000000     0.449163   
Zn31     Zn     0.523190000000     0.457940000000     0.458090000000     0.449002   
Zn32     Zn     0.522120000000     0.523050000000     0.521790000000     0.449107   


