data_structure

_audit_creation_method RASPA-1.0
_audit_creation_date 2023-5-19
_audit_author_name 'Poobodin Mano'

_cell_length_a    43.6944
_cell_length_b    43.6977
_cell_length_c    43.6871
_cell_angle_alpha 90
_cell_angle_beta  90
_cell_angle_gamma 90
_cell_volume      83413.7

_symmetry_cell_setting          triclinic
_symmetry_space_group_name_Hall 'P 1'
_symmetry_space_group_name_H-M  'P 1'
_symmetry_Int_Tables_number     1

_symmetry_equiv_pos_as_xyz 'x,y,z'

loop_
_atom_site_label
_atom_site_type_symbol
_atom_site_fract_x
_atom_site_fract_y
_atom_site_fract_z
_atom_site_charge
C1       C      0.012130000000     0.011780000000     0.096770000000     0.314256   
C2       C      0.097170000000     0.011570000000     0.011700000000     0.314049   
C3       C      0.011860000000     0.926860000000     0.011940000000     0.314276   
C4       C      0.012270000000     0.011730000000     0.926850000000     0.314588   
C5       C      0.012570000000     0.096830000000     0.011890000000     0.314186   
C6       C      0.927240000000     0.012310000000     0.011580000000     0.314155   
C7       C      0.012090000000     0.011700000000     0.426880000000     0.31413    
C8       C      0.097140000000     0.011930000000     0.511920000000     0.315187   
C9       C      0.011930000000     0.096680000000     0.511740000000     0.315132   
C10      C      0.012260000000     0.011680000000     0.596780000000     0.314355   
C11      C      0.012400000000     0.926720000000     0.511730000000     0.315255   
C12      C      0.927200000000     0.011430000000     0.512080000000     0.315295   
C13      C      0.012400000000     0.426890000000     0.012120000000     0.314166   
C14      C      0.012290000000     0.511910000000     0.096990000000     0.315235   
C15      C      0.097160000000     0.511920000000     0.011770000000     0.315046   
C16      C      0.012020000000     0.596800000000     0.012220000000     0.314181   
C17      C      0.927230000000     0.511550000000     0.011990000000     0.315426   
C18      C      0.012070000000     0.511990000000     0.927050000000     0.315296   
C19      C      0.012090000000     0.426730000000     0.511860000000     0.315237   
C20      C      0.012140000000     0.511760000000     0.427070000000     0.315129   
C21      C      0.927140000000     0.511650000000     0.512130000000     0.316467   
C22      C      0.012120000000     0.596670000000     0.511850000000     0.315411   
C23      C      0.097050000000     0.511650000000     0.512210000000     0.31628    
C24      C      0.012030000000     0.511770000000     0.596970000000     0.315067   
C25      C      0.427330000000     0.011120000000     0.010860000000     0.313854   
C26      C      0.512260000000     0.011460000000     0.096490000000     0.314701   
C27      C      0.512660000000     0.926510000000     0.012070000000     0.315421   
C28      C      0.597080000000     0.012030000000     0.010760000000     0.313692   
C29      C      0.511750000000     0.096510000000     0.012080000000     0.315501   
C30      C      0.512150000000     0.011470000000     0.926470000000     0.31544    
C31      C      0.427290000000     0.011750000000     0.512440000000     0.314901   
C32      C      0.512200000000     0.011300000000     0.426750000000     0.314921   
C33      C      0.512560000000     0.096340000000     0.511070000000     0.316481   
C34      C      0.597050000000     0.010960000000     0.512500000000     0.31477    
C35      C      0.511770000000     0.926310000000     0.511100000000     0.316306   
C36      C      0.512150000000     0.011330000000     0.596730000000     0.315543   
C37      C      0.427220000000     0.511800000000     0.011780000000     0.315339   
C38      C      0.511880000000     0.426570000000     0.012000000000     0.315315   
C39      C      0.512260000000     0.511500000000     0.926950000000     0.316449   
C40      C      0.597170000000     0.511190000000     0.011920000000     0.315356   
C41      C      0.512120000000     0.511500000000     0.096850000000     0.316604   
C42      C      0.512520000000     0.596430000000     0.012000000000     0.315342   
C43      C      0.512160000000     0.426360000000     0.511600000000     0.316099   
C44      C      0.427140000000     0.511320000000     0.512090000000     0.316284   
C45      C      0.512160000000     0.511320000000     0.596800000000     0.316111   
C46      C      0.512030000000     0.596290000000     0.511630000000     0.316262   
C47      C      0.512040000000     0.511340000000     0.426950000000     0.316526   
C48      C      0.597060000000     0.511350000000     0.511970000000     0.316309   
C49      C      0.512270000000     0.511490000000     0.893000000000    -0.0882181  
C50      C      0.531750000000     0.491770000000     0.876630000000     0.0174325  
C51      C      0.531740000000     0.491750000000     0.844640000000    -0.0645126  
C52      C      0.512290000000     0.511450000000     0.828250000000     0.0280335  
C53      C      0.492830000000     0.531170000000     0.844610000000    -0.0644956  
C54      C      0.492810000000     0.531190000000     0.876600000000     0.0174505  
C55      C      0.512290000000     0.511430000000     0.794240000000     0.00143876 
C56      C      0.510670000000     0.539070000000     0.777850000000    -0.0368596  
C57      C      0.510660000000     0.539050000000     0.745860000000    -0.0369295  
C58      C      0.512260000000     0.511390000000     0.729510000000     0.00146855 
C59      C      0.513890000000     0.483740000000     0.745900000000    -0.0368816  
C60      C      0.513900000000     0.483760000000     0.777880000000    -0.0368802  
C61      C      0.512230000000     0.511360000000     0.695490000000     0.0281047  
C62      C      0.531670000000     0.491640000000     0.679120000000    -0.0645544  
C63      C      0.531660000000     0.491620000000     0.647130000000     0.0174343  
C64      C      0.512180000000     0.511330000000     0.630750000000    -0.088128   
C65      C      0.492730000000     0.531050000000     0.647140000000     0.0174916  
C66      C      0.492770000000     0.531070000000     0.679130000000    -0.0645633  
C67      C      0.512100000000     0.511480000000     0.130790000000    -0.08849    
C68      C      0.492400000000     0.491980000000     0.147160000000     0.0175658  
C69      C      0.492390000000     0.491970000000     0.179140000000    -0.0646775  
C70      C      0.512070000000     0.511450000000     0.195530000000     0.0281266  
C71      C      0.531760000000     0.530940000000     0.179190000000    -0.0647021  
C72      C      0.531770000000     0.530980000000     0.147200000000     0.0175481  
C73      C      0.512060000000     0.511420000000     0.229540000000     0.00142952 
C74      C      0.484400000000     0.509770000000     0.245900000000    -0.0368728  
C75      C      0.484390000000     0.509750000000     0.277890000000    -0.0369139  
C76      C      0.512040000000     0.511380000000     0.294260000000     0.00145095 
C77      C      0.539700000000     0.513020000000     0.277900000000    -0.0368779  
C78      C      0.539710000000     0.513040000000     0.245910000000    -0.036939   
C79      C      0.512040000000     0.511370000000     0.328270000000     0.0281354  
C80      C      0.492350000000     0.491880000000     0.344630000000    -0.064612   
C81      C      0.492350000000     0.491860000000     0.376620000000     0.0175791  
C82      C      0.512040000000     0.511350000000     0.393010000000    -0.0883682  
C83      C      0.531720000000     0.530850000000     0.376630000000     0.0175696  
C84      C      0.531720000000     0.530850000000     0.344640000000    -0.0646272  
C85      C      0.511940000000     0.630230000000     0.511390000000    -0.0882684  
C86      C      0.532310000000     0.646530000000     0.492530000000     0.017522   
C87      C      0.532240000000     0.678510000000     0.492310000000    -0.0646782  
C88      C      0.511750000000     0.694960000000     0.510870000000     0.0280935  
C89      C      0.491340000000     0.678690000000     0.529680000000    -0.0647039  
C90      C      0.491460000000     0.646710000000     0.529970000000     0.0174915  
C91      C      0.511720000000     0.728960000000     0.510650000000     0.00138605 
C92      C      0.539420000000     0.745320000000     0.510460000000    -0.0369066  
C93      C      0.539410000000     0.777300000000     0.510400000000    -0.0368864  
C94      C      0.511700000000     0.793650000000     0.510440000000     0.00137261 
C95      C      0.484000000000     0.777290000000     0.510520000000    -0.0368887  
C96      C      0.484010000000     0.745310000000     0.510680000000    -0.0368972  
C97      C      0.511720000000     0.827650000000     0.510530000000     0.0280833  
C98      C      0.532290000000     0.843910000000     0.529170000000    -0.0647404  
C99      C      0.532290000000     0.875880000000     0.529360000000     0.0174806  
C100     C      0.511760000000     0.892380000000     0.510840000000    -0.0883725  
C101     C      0.491210000000     0.876100000000     0.492150000000     0.0174907  
C102     C      0.491170000000     0.844110000000     0.492040000000    -0.0646539  
C103     C      0.512560000000     0.130280000000     0.510800000000    -0.0884459  
C104     C      0.533070000000     0.146560000000     0.492080000000     0.0174549  
C105     C      0.533100000000     0.178560000000     0.491960000000    -0.0646914  
C106     C      0.512560000000     0.195010000000     0.510460000000     0.0280649  
C107     C      0.492020000000     0.178750000000     0.529120000000    -0.0647258  
C108     C      0.492040000000     0.146770000000     0.529320000000     0.0174387  
C109     C      0.512560000000     0.229010000000     0.510360000000     0.0013687  
C110     C      0.540260000000     0.245380000000     0.510410000000    -0.0369116  
C111     C      0.540240000000     0.277360000000     0.510570000000    -0.0368922  
C112     C      0.512520000000     0.293700000000     0.510570000000     0.00138636 
C113     C      0.484830000000     0.277330000000     0.510410000000    -0.0369192  
C114     C      0.484850000000     0.245350000000     0.510350000000    -0.0369408  
C115     C      0.512480000000     0.327700000000     0.510800000000     0.0280491  
C116     C      0.532900000000     0.343970000000     0.529600000000    -0.0646174  
C117     C      0.532770000000     0.375950000000     0.529910000000     0.0174572  
C118     C      0.512260000000     0.392430000000     0.511350000000    -0.0882694  
C119     C      0.491870000000     0.376130000000     0.492510000000     0.017471   
C120     C      0.491960000000     0.344150000000     0.492280000000    -0.0646333  
C121     C      0.512650000000     0.630370000000     0.012080000000    -0.0889951  
C122     C      0.532380000000     0.646640000000     0.031630000000     0.01755    
C123     C      0.532490000000     0.678620000000     0.031710000000    -0.0645188  
C124     C      0.512900000000     0.695100000000     0.012230000000     0.0272809  
C125     C      0.493170000000     0.678860000000     0.992680000000    -0.0636829  
C126     C      0.493040000000     0.646870000000     0.992610000000     0.0183434  
C127     C      0.513040000000     0.729120000000     0.012290000000     0.000685699
C128     C      0.515020000000     0.745440000000     0.039950000000    -0.0368584  
C129     C      0.515050000000     0.777430000000     0.039990000000    -0.0368155  
C130     C      0.513090000000     0.793830000000     0.012370000000     0.000631895
C131     C      0.511170000000     0.777490000000     0.984710000000    -0.0359834  
C132     C      0.511150000000     0.745520000000     0.984670000000    -0.0360204  
C133     C      0.512950000000     0.827840000000     0.012400000000     0.0272521  
C134     C      0.532570000000     0.844310000000     0.031870000000    -0.0644853  
C135     C      0.532480000000     0.876300000000     0.031810000000     0.0174778  
C136     C      0.512730000000     0.892570000000     0.012280000000    -0.0890222  
C137     C      0.493060000000     0.876070000000     0.992850000000     0.0182591  
C138     C      0.493180000000     0.844100000000     0.992910000000    -0.0637017  
C139     C      0.511690000000     0.130440000000     0.012290000000    -0.089311   
C140     C      0.531300000000     0.146940000000     0.992810000000     0.0184067  
C141     C      0.531180000000     0.178910000000     0.992870000000    -0.0637951  
C142     C      0.511470000000     0.195170000000     0.012410000000     0.0273489  
C143     C      0.491910000000     0.178710000000     0.031940000000    -0.0646801  
C144     C      0.492000000000     0.146720000000     0.031870000000     0.0175952  
C145     C      0.511340000000     0.229180000000     0.012380000000     0.000577954
C146     C      0.509440000000     0.245580000000     0.040000000000    -0.0367601  
C147     C      0.509460000000     0.277570000000     0.039960000000    -0.036879   
C148     C      0.511380000000     0.293890000000     0.012290000000     0.000694122
C149     C      0.513210000000     0.277490000000     0.984670000000    -0.0360596  
C150     C      0.513190000000     0.245510000000     0.984720000000    -0.0359527  
C151     C      0.511520000000     0.327910000000     0.012230000000     0.0273061  
C152     C      0.531220000000     0.344150000000     0.992660000000    -0.063703   
C153     C      0.531350000000     0.376130000000     0.992580000000     0.0183756  
C154     C      0.511760000000     0.392640000000     0.012080000000    -0.0890635  
C155     C      0.492050000000     0.376370000000     0.031650000000     0.0175987  
C156     C      0.491940000000     0.344390000000     0.031730000000    -0.0645732  
C157     C      0.512130000000     0.011440000000     0.892640000000    -0.0899622  
C158     C      0.505190000000     0.984580000000     0.876350000000     0.0196529  
C159     C      0.505550000000     0.984470000000     0.844350000000    -0.0645964  
C160     C      0.512110000000     0.011390000000     0.828120000000     0.027682   
C161     C      0.518680000000     0.038340000000     0.844310000000    -0.0654108  
C162     C      0.519060000000     0.038280000000     0.876310000000     0.0187559  
C163     C      0.512100000000     0.011370000000     0.794310000000     0.000486177
C164     C      0.531740000000     0.991850000000     0.778120000000    -0.0365756  
C165     C      0.532020000000     0.992070000000     0.746120000000    -0.0354626  
C166     C      0.512110000000     0.011340000000     0.729590000000     0.000459523
C167     C      0.492190000000     0.030620000000     0.746110000000    -0.03629    
C168     C      0.492470000000     0.030870000000     0.778100000000    -0.0374101  
C169     C      0.512120000000     0.011340000000     0.695380000000     0.0274756  
C170     C      0.518590000000     0.984400000000     0.678870000000    -0.0634932  
C171     C      0.518950000000     0.984510000000     0.646870000000     0.0194855  
C172     C      0.512140000000     0.011330000000     0.630560000000    -0.0897739  
C173     C      0.505320000000     0.038160000000     0.646860000000     0.0185785  
C174     C      0.505660000000     0.038260000000     0.678860000000    -0.064265   
C175     C      0.512260000000     0.011420000000     0.130450000000    -0.0886713  
C176     C      0.491660000000     0.029920000000     0.146870000000     0.0172754  
C177     C      0.491640000000     0.029850000000     0.178860000000    -0.0643578  
C178     C      0.512260000000     0.011350000000     0.195220000000     0.0269163  
C179     C      0.532890000000     0.992890000000     0.178830000000    -0.0634518  
C180     C      0.532870000000     0.992890000000     0.146830000000     0.0180742  
C181     C      0.512260000000     0.011320000000     0.229250000000     0.00162014 
C182     C      0.484560000000     0.011330000000     0.245620000000    -0.037018   
C183     C      0.484550000000     0.011270000000     0.277610000000    -0.0370502  
C184     C      0.512260000000     0.011280000000     0.293990000000     0.00159943 
C185     C      0.539960000000     0.011300000000     0.277620000000    -0.0370059  
C186     C      0.539960000000     0.011270000000     0.245620000000    -0.0371033  
C187     C      0.512250000000     0.011270000000     0.328020000000     0.0269581  
C188     C      0.491610000000     0.992800000000     0.344390000000    -0.0634434  
C189     C      0.491620000000     0.992770000000     0.376380000000     0.018195   
C190     C      0.512220000000     0.011280000000     0.392790000000    -0.0886703  
C191     C      0.532850000000     0.029780000000     0.376390000000     0.0172813  
C192     C      0.532880000000     0.029750000000     0.344390000000    -0.064347   
C193     C      0.893210000000     0.511630000000     0.512170000000    -0.0883575  
C194     C      0.876790000000     0.531230000000     0.492600000000     0.0174558  
C195     C      0.844810000000     0.531180000000     0.492610000000    -0.0645906  
C196     C      0.828470000000     0.511560000000     0.512180000000     0.0280617  
C197     C      0.844860000000     0.491980000000     0.531760000000    -0.0645836  
C198     C      0.876850000000     0.492000000000     0.531750000000     0.0175037  
C199     C      0.794460000000     0.511500000000     0.512170000000     0.00143636 
C200     C      0.778100000000     0.513300000000     0.484510000000    -0.0369621  
C201     C      0.746120000000     0.513270000000     0.484500000000    -0.0368883  
C202     C      0.729740000000     0.511440000000     0.512140000000     0.00139126 
C203     C      0.746100000000     0.509620000000     0.539790000000    -0.0368467  
C204     C      0.778080000000     0.509660000000     0.539810000000    -0.0369152  
C205     C      0.695730000000     0.511420000000     0.512110000000     0.0280323  
C206     C      0.679370000000     0.531010000000     0.492520000000    -0.0645354  
C207     C      0.647390000000     0.531010000000     0.492480000000     0.0174148  
C208     C      0.630990000000     0.511380000000     0.512030000000    -0.0883547  
C209     C      0.647370000000     0.491780000000     0.531630000000     0.0174602  
C210     C      0.679350000000     0.491820000000     0.531670000000    -0.0645882  
C211     C      0.393200000000     0.511310000000     0.512200000000    -0.0882649  
C212     C      0.376750000000     0.491760000000     0.492620000000     0.0174115  
C213     C      0.344770000000     0.491770000000     0.492720000000    -0.0645609  
C214     C      0.328460000000     0.511340000000     0.512380000000     0.0280109  
C215     C      0.344890000000     0.530880000000     0.531950000000    -0.0645444  
C216     C      0.376870000000     0.530870000000     0.531880000000     0.017423   
C217     C      0.294450000000     0.511370000000     0.512440000000     0.00143422 
C218     C      0.278050000000     0.483750000000     0.510620000000    -0.0369138  
C219     C      0.246070000000     0.483790000000     0.510640000000    -0.0369149  
C220     C      0.229740000000     0.511440000000     0.512480000000     0.00145807 
C221     C      0.246130000000     0.539070000000     0.514320000000    -0.0369789  
C222     C      0.278120000000     0.539030000000     0.514300000000    -0.0369148  
C223     C      0.195720000000     0.511480000000     0.512430000000     0.0280133  
C224     C      0.179360000000     0.491950000000     0.492790000000    -0.0646219  
C225     C      0.147380000000     0.492010000000     0.492710000000     0.0174326  
C226     C      0.130990000000     0.511590000000     0.512300000000    -0.0883281  
C227     C      0.147360000000     0.531120000000     0.531970000000     0.017422   
C228     C      0.179350000000     0.531070000000     0.532020000000    -0.0645694  
C229     C      0.893290000000     0.511400000000     0.011940000000    -0.089052   
C230     C      0.876950000000     0.492640000000     0.032380000000     0.017514   
C231     C      0.844970000000     0.492560000000     0.032380000000    -0.0646151  
C232     C      0.828560000000     0.511150000000     0.011880000000     0.0272829  
C233     C      0.844860000000     0.529850000000     0.991410000000    -0.0637358  
C234     C      0.876840000000     0.530010000000     0.991460000000     0.0184219  
C235     C      0.794550000000     0.511060000000     0.011890000000     0.000589916
C236     C      0.778200000000     0.510980000000     0.039600000000    -0.0368426  
C237     C      0.746220000000     0.511000000000     0.039610000000    -0.0368686  
C238     C      0.729850000000     0.510980000000     0.011900000000     0.000586655
C239     C      0.746200000000     0.510990000000     0.984190000000    -0.0359814  
C240     C      0.778190000000     0.511080000000     0.984180000000    -0.0359737  
C241     C      0.695850000000     0.511010000000     0.011910000000     0.0272986  
C242     C      0.679520000000     0.529650000000     0.032430000000    -0.0646654  
C243     C      0.647540000000     0.529740000000     0.032410000000     0.017535   
C244     C      0.631110000000     0.511110000000     0.011920000000    -0.0890588  
C245     C      0.647470000000     0.492430000000     0.991430000000     0.018416   
C246     C      0.679460000000     0.492420000000     0.991400000000    -0.0637576  
C247     C      0.131100000000     0.511970000000     0.011690000000    -0.0889744  
C248     C      0.147500000000     0.530640000000     0.032150000000     0.0174021  
C249     C      0.179490000000     0.530630000000     0.032130000000    -0.064606   
C250     C      0.195840000000     0.512030000000     0.011600000000     0.0272285  
C251     C      0.179470000000     0.493400000000     0.991110000000    -0.0637095  
C252     C      0.147480000000     0.493330000000     0.991170000000     0.0182705  
C253     C      0.229840000000     0.512020000000     0.011600000000     0.000540537
C254     C      0.246190000000     0.512030000000     0.039310000000    -0.0368521  
C255     C      0.278170000000     0.511970000000     0.039320000000    -0.0368662  
C256     C      0.294540000000     0.512000000000     0.011620000000     0.00060675 
C257     C      0.278190000000     0.512050000000     0.983900000000    -0.0360677  
C258     C      0.246210000000     0.512010000000     0.983900000000    -0.0359165  
C259     C      0.328540000000     0.511950000000     0.011640000000     0.0272426  
C260     C      0.344850000000     0.493290000000     0.032150000000    -0.0645488  
C261     C      0.376830000000     0.493200000000     0.032170000000     0.0174673  
C262     C      0.393280000000     0.511860000000     0.011720000000    -0.0890328  
C263     C      0.376940000000     0.530550000000     0.991230000000     0.0183671  
C264     C      0.344950000000     0.530560000000     0.991170000000    -0.0637214  
C265     C      0.012040000000     0.512020000000     0.893110000000    -0.0890498  
C266     C      0.993340000000     0.532490000000     0.876750000000     0.0183345  
C267     C      0.993330000000     0.532510000000     0.844760000000    -0.0635531  
C268     C      0.011950000000     0.512030000000     0.828370000000     0.0270176  
C269     C      0.030620000000     0.491550000000     0.844700000000    -0.0645171  
C270     C      0.030700000000     0.491570000000     0.876690000000     0.0174662  
C271     C      0.011890000000     0.512010000000     0.794360000000     0.00153539 
C272     C      0.011810000000     0.539700000000     0.777980000000    -0.0370817  
C273     C      0.011860000000     0.539670000000     0.745990000000    -0.0370161  
C274     C      0.011870000000     0.511960000000     0.729660000000     0.00155088 
C275     C      0.011890000000     0.484270000000     0.746040000000    -0.0370713  
C276     C      0.011950000000     0.484290000000     0.778020000000    -0.0370135  
C277     C      0.011900000000     0.511920000000     0.695650000000     0.027059   
C278     C      0.030500000000     0.532440000000     0.679290000000    -0.0645175  
C279     C      0.030580000000     0.532370000000     0.647300000000     0.0174765  
C280     C      0.011990000000     0.511820000000     0.630910000000    -0.0889565  
C281     C      0.993340000000     0.491330000000     0.647310000000     0.0182908  
C282     C      0.993330000000     0.491360000000     0.679300000000    -0.0636218  
C283     C      0.012290000000     0.511940000000     0.130940000000    -0.0890436  
C284     C      0.991830000000     0.493260000000     0.147340000000     0.018276   
C285     C      0.991800000000     0.493320000000     0.179330000000    -0.0638327  
C286     C      0.012280000000     0.511980000000     0.195680000000     0.027227   
C287     C      0.032760000000     0.530620000000     0.179310000000    -0.0646119  
C288     C      0.032750000000     0.530640000000     0.147320000000     0.0173871  
C289     C      0.012270000000     0.511990000000     0.229680000000     0.000503773
C290     C      0.984560000000     0.511930000000     0.246030000000    -0.0359818  
C291     C      0.984550000000     0.511960000000     0.278020000000    -0.0360349  
C292     C      0.012250000000     0.511950000000     0.294390000000     0.000564942
C293     C      0.039960000000     0.511970000000     0.278040000000    -0.0369068  
C294     C      0.039970000000     0.512050000000     0.246050000000    -0.0368218  
C295     C      0.012230000000     0.511910000000     0.328390000000     0.0272692  
C296     C      0.991690000000     0.530490000000     0.344760000000    -0.0637844  
C297     C      0.991680000000     0.530470000000     0.376750000000     0.0183771  
C298     C      0.012170000000     0.511810000000     0.393130000000    -0.0890617  
C299     C      0.032680000000     0.493190000000     0.376730000000     0.017543   
C300     C      0.032740000000     0.493280000000     0.344740000000    -0.0646949  
C301     C      0.012420000000     0.892780000000     0.511660000000    -0.0890299  
C302     C      0.991950000000     0.876350000000     0.530310000000     0.0183242  
C303     C      0.991920000000     0.844370000000     0.530210000000    -0.0637898  
C304     C      0.012400000000     0.828050000000     0.511530000000     0.0272584  
C305     C      0.032900000000     0.844430000000     0.492920000000    -0.0647052  
C306     C      0.032880000000     0.876420000000     0.492950000000     0.0174909  
C307     C      0.012370000000     0.794040000000     0.511470000000     0.000561621
C308     C      0.984660000000     0.777710000000     0.511510000000    -0.0360344  
C309     C      0.984630000000     0.745730000000     0.511460000000    -0.0359885  
C310     C      0.012320000000     0.729350000000     0.511480000000     0.000518868
C311     C      0.040040000000     0.745680000000     0.511470000000    -0.036853   
C312     C      0.040070000000     0.777660000000     0.511410000000    -0.0369247  
C313     C      0.012280000000     0.695340000000     0.511550000000     0.027299   
C314     C      0.991740000000     0.678970000000     0.492990000000    -0.0638035  
C315     C      0.991710000000     0.646980000000     0.493040000000     0.0183968  
C316     C      0.012170000000     0.630610000000     0.511740000000    -0.0891061  
C317     C      0.032700000000     0.647020000000     0.530330000000     0.0174941  
C318     C      0.032780000000     0.679010000000     0.530200000000    -0.0647168  
C319     C      0.011900000000     0.130620000000     0.511690000000    -0.0890835  
C320     C      0.991370000000     0.146970000000     0.493040000000     0.0182297  
C321     C      0.991350000000     0.178960000000     0.493020000000    -0.0638138  
C322     C      0.011900000000     0.195350000000     0.511570000000     0.0272171  
C323     C      0.032440000000     0.179030000000     0.530190000000    -0.0647263  
C324     C      0.032410000000     0.147040000000     0.530280000000     0.0174431  
C325     C      0.011910000000     0.229350000000     0.511520000000     0.000493371
C326     C      0.984210000000     0.245720000000     0.511540000000    -0.0360404  
C327     C      0.984230000000     0.277710000000     0.511600000000    -0.0360852  
C328     C      0.011940000000     0.294050000000     0.511520000000     0.000571708
C329     C      0.039640000000     0.277680000000     0.511430000000    -0.0369584  
C330     C      0.039620000000     0.245700000000     0.511470000000    -0.0368741  
C331     C      0.011960000000     0.328050000000     0.511590000000     0.0271877  
C332     C      0.991520000000     0.344390000000     0.530290000000    -0.0637184  
C333     C      0.991580000000     0.376370000000     0.530420000000     0.0182522  
C334     C      0.012050000000     0.392790000000     0.511760000000    -0.0890011  
C335     C      0.032470000000     0.376420000000     0.493010000000     0.0174249  
C336     C      0.032450000000     0.344430000000     0.492960000000    -0.0646518  
C337     C      0.630990000000     0.010990000000     0.512780000000    -0.0887685  
C338     C      0.647480000000     0.030500000000     0.493180000000     0.0173295  
C339     C      0.679460000000     0.030540000000     0.493370000000    -0.064519   
C340     C      0.695740000000     0.011070000000     0.513130000000     0.0272163  
C341     C      0.679290000000     0.991560000000     0.532730000000    -0.063576   
C342     C      0.647290000000     0.991530000000     0.532570000000     0.0182095  
C343     C      0.729760000000     0.011110000000     0.513240000000     0.000606072
C344     C      0.746100000000     0.038760000000     0.511270000000    -0.0368317  
C345     C      0.778080000000     0.038790000000     0.511140000000    -0.0368381  
C346     C      0.794490000000     0.011180000000     0.512990000000     0.000651387
C347     C      0.778150000000     0.983530000000     0.515040000000    -0.0360389  
C348     C      0.746170000000     0.983500000000     0.515170000000    -0.03592    
C349     C      0.828510000000     0.011220000000     0.512740000000     0.0272508  
C350     C      0.844700000000     0.030760000000     0.492950000000    -0.0644921  
C351     C      0.876690000000     0.030820000000     0.492710000000     0.0173878  
C352     C      0.893260000000     0.011340000000     0.512280000000    -0.0889318  
C353     C      0.877040000000     0.991800000000     0.532060000000     0.018322   
C354     C      0.845050000000     0.991740000000     0.532270000000    -0.0636584  
C355     C      0.393350000000     0.011760000000     0.512690000000    -0.088798   
C356     C      0.377060000000     0.031260000000     0.532460000000     0.017353   
C357     C      0.345070000000     0.031290000000     0.532580000000    -0.0644187  
C358     C      0.328600000000     0.011820000000     0.512960000000     0.0271433  
C359     C      0.344870000000     0.992320000000     0.493210000000    -0.0635928  
C360     C      0.376850000000     0.992290000000     0.493060000000     0.0181437  
C361     C      0.294580000000     0.011870000000     0.513020000000     0.000687552
C362     C      0.278240000000     0.039520000000     0.514930000000    -0.036923   
C363     C      0.246250000000     0.039560000000     0.514780000000    -0.0368183  
C364     C      0.229850000000     0.011950000000     0.512730000000     0.000606142
C365     C      0.246200000000     0.984300000000     0.510890000000    -0.0359752  
C366     C      0.278180000000     0.984260000000     0.511030000000    -0.0360471  
C367     C      0.195830000000     0.011990000000     0.512480000000     0.0272117  
C368     C      0.179340000000     0.031510000000     0.532020000000    -0.064488   
C369     C      0.147350000000     0.031500000000     0.531830000000     0.0173649  
C370     C      0.131090000000     0.011980000000     0.512060000000    -0.0889221  
C371     C      0.147600000000     0.992480000000     0.492490000000     0.0182207  
C372     C      0.179590000000     0.992480000000     0.492710000000    -0.0636523  
C373     C      0.011800000000     0.892920000000     0.012030000000    -0.0897485  
C374     C      0.032280000000     0.876460000000     0.993430000000     0.018307   
C375     C      0.032290000000     0.844480000000     0.993570000000    -0.0635376  
C376     C      0.011770000000     0.828190000000     0.012230000000     0.0261814  
C377     C      0.991250000000     0.844620000000     0.030790000000    -0.0635811  
C378     C      0.991290000000     0.876600000000     0.030720000000     0.0183352  
C379     C      0.011770000000     0.794190000000     0.012350000000     0.000725776
C380     C      0.039480000000     0.777840000000     0.012350000000    -0.0370341  
C381     C      0.039500000000     0.745850000000     0.012440000000    -0.0370413  
C382     C      0.011800000000     0.729480000000     0.012440000000     0.000752389
C383     C      0.984090000000     0.745830000000     0.012420000000    -0.0361846  
C384     C      0.984080000000     0.777820000000     0.012420000000    -0.0361212  
C385     C      0.011820000000     0.695480000000     0.012430000000     0.0261583  
C386     C      0.032380000000     0.679120000000     0.031000000000    -0.0644317  
C387     C      0.032410000000     0.647140000000     0.030980000000     0.0174538  
C388     C      0.011940000000     0.630740000000     0.012310000000    -0.089682   
C389     C      0.991390000000     0.647130000000     0.993720000000     0.0190907  
C390     C      0.991310000000     0.679120000000     0.993810000000    -0.0626334  
C391     C      0.012640000000     0.130770000000     0.011940000000    -0.0897164  
C392     C      0.994010000000     0.147220000000     0.991480000000     0.019062   
C393     C      0.994100000000     0.179210000000     0.991510000000    -0.0626447  
C394     C      0.012740000000     0.195500000000     0.012040000000     0.026165   
C395     C      0.031330000000     0.179090000000     0.032530000000    -0.0644473  
C396     C      0.031330000000     0.147100000000     0.032460000000     0.0173003  
C397     C      0.012770000000     0.229510000000     0.012090000000     0.000736615
C398     C      0.012730000000     0.245900000000     0.984400000000    -0.0362368  
C399     C      0.012770000000     0.277880000000     0.984440000000    -0.0361267  
C400     C      0.012740000000     0.294210000000     0.012170000000     0.000745708
C401     C      0.012740000000     0.277820000000     0.039860000000    -0.0370789  
C402     C      0.012810000000     0.245830000000     0.039820000000    -0.036974   
C403     C      0.012680000000     0.328210000000     0.012200000000     0.0261541  
C404     C      0.031240000000     0.344610000000     0.991670000000    -0.0635623  
C405     C      0.031200000000     0.376600000000     0.991680000000     0.0182134  
C406     C      0.012510000000     0.392950000000     0.012170000000    -0.0896432  
C407     C      0.993920000000     0.376520000000     0.032690000000     0.0182379  
C408     C      0.994050000000     0.344530000000     0.032730000000    -0.0634593  
C409     C      0.631030000000     0.012150000000     0.010590000000    -0.0892937  
C410     C      0.647540000000     0.992680000000     0.030200000000     0.0180906  
C411     C      0.679520000000     0.992870000000     0.030200000000    -0.063349   
C412     C      0.695780000000     0.012520000000     0.010590000000     0.0260937  
C413     C      0.679290000000     0.031930000000     0.990910000000    -0.06327    
C414     C      0.647300000000     0.031760000000     0.990920000000     0.0181225  
C415     C      0.729800000000     0.012760000000     0.010700000000     0.000861329
C416     C      0.746070000000     0.011050000000     0.038420000000    -0.0370389  
C417     C      0.778040000000     0.011080000000     0.038550000000    -0.0369802  
C418     C      0.794530000000     0.012830000000     0.010970000000     0.000841146
C419     C      0.778270000000     0.014630000000     0.983250000000    -0.036108   
C420     C      0.746280000000     0.014590000000     0.983120000000    -0.0360898  
C421     C      0.828550000000     0.012720000000     0.011120000000     0.026136   
C422     C      0.844750000000     0.993110000000     0.030820000000    -0.0633031  
C423     C      0.876740000000     0.992970000000     0.030980000000     0.018162   
C424     C      0.893300000000     0.012470000000     0.011440000000    -0.089497   
C425     C      0.877080000000     0.032100000000     0.991740000000     0.0182066  
C426     C      0.845090000000     0.032200000000     0.991580000000    -0.0632785  
C427     C      0.393380000000     0.011150000000     0.010660000000    -0.0893563  
C428     C      0.376940000000     0.030670000000     0.030280000000     0.0172657  
C429     C      0.344960000000     0.030710000000     0.030160000000    -0.0642241  
C430     C      0.328630000000     0.011230000000     0.010450000000     0.0261065  
C431     C      0.345040000000     0.991710000000     0.990820000000    -0.0624206  
C432     C      0.377040000000     0.991680000000     0.990910000000     0.0189924  
C433     C      0.294610000000     0.011260000000     0.010420000000     0.000878993
C434     C      0.278200000000     0.983650000000     0.008530000000    -0.0362095  
C435     C      0.246220000000     0.983690000000     0.008710000000    -0.0360802  
C436     C      0.229880000000     0.011330000000     0.010770000000     0.000807142
C437     C      0.246290000000     0.038950000000     0.012590000000    -0.0369691  
C438     C      0.278280000000     0.038910000000     0.012410000000    -0.0370033  
C439     C      0.195860000000     0.011370000000     0.011040000000     0.026133   
C440     C      0.179660000000     0.030920000000     0.030810000000    -0.0641916  
C441     C      0.147670000000     0.030980000000     0.031060000000     0.0172934  
C442     C      0.131110000000     0.011490000000     0.011510000000    -0.0895684  
C443     C      0.147330000000     0.991930000000     0.991740000000     0.0190289  
C444     C      0.179320000000     0.991870000000     0.991520000000    -0.0625252  
C445     C      0.012300000000     0.011670000000     0.630720000000    -0.0898183  
C446     C      0.030960000000     0.032160000000     0.647100000000     0.0175298  
C447     C      0.030960000000     0.032170000000     0.679090000000    -0.064468   
C448     C      0.012370000000     0.011650000000     0.695460000000     0.0262353  
C449     C      0.993750000000     0.991140000000     0.679110000000    -0.0626582  
C450     C      0.993680000000     0.991170000000     0.647120000000     0.0192206  
C451     C      0.012390000000     0.011650000000     0.729460000000     0.000758934
C452     C      0.012350000000     0.983950000000     0.745820000000    -0.0361737  
C453     C      0.012400000000     0.983950000000     0.777810000000    -0.0361244  
C454     C      0.012380000000     0.011660000000     0.794170000000     0.000715639
C455     C      0.012370000000     0.039360000000     0.777800000000    -0.0369725  
C456     C      0.012430000000     0.039360000000     0.745820000000    -0.0370134  
C457     C      0.012340000000     0.011670000000     0.828170000000     0.0262539  
C458     C      0.030920000000     0.991140000000     0.844560000000    -0.0635827  
C459     C      0.030920000000     0.991170000000     0.876550000000     0.018434   
C460     C      0.012290000000     0.011700000000     0.892910000000    -0.0898623  
C461     C      0.993670000000     0.032200000000     0.876490000000     0.0183776  
C462     C      0.993740000000     0.032200000000     0.844500000000    -0.0635646  
C463     C      0.012110000000     0.011750000000     0.130720000000    -0.0897093  
C464     C      0.993360000000     0.991330000000     0.147090000000     0.019108   
C465     C      0.993370000000     0.991290000000     0.179080000000    -0.0626561  
C466     C      0.012050000000     0.011730000000     0.195460000000     0.026195   
C467     C      0.030750000000     0.032170000000     0.179130000000    -0.0644629  
C468     C      0.030830000000     0.032160000000     0.147140000000     0.0173895  
C469     C      0.012010000000     0.011720000000     0.229470000000     0.000703122
C470     C      0.011940000000     0.984010000000     0.245830000000    -0.0361776  
C471     C      0.011990000000     0.984010000000     0.277820000000    -0.0361557  
C472     C      0.012000000000     0.011710000000     0.294180000000     0.000765926
C473     C      0.012010000000     0.039410000000     0.277830000000    -0.0370543  
C474     C      0.012070000000     0.039420000000     0.245840000000    -0.0369736  
C475     C      0.012010000000     0.011700000000     0.328190000000     0.0261756  
C476     C      0.030660000000     0.991210000000     0.344540000000    -0.0635412  
C477     C      0.030730000000     0.991240000000     0.376530000000     0.0182846  
C478     C      0.012060000000     0.011700000000     0.392940000000    -0.0896988  
C479     C      0.993360000000     0.032160000000     0.376560000000     0.0182868  
C480     C      0.993380000000     0.032190000000     0.344560000000    -0.0635338  
H1       H      0.547110000000     0.476350000000     0.888490000000     0.0408212  
H2       H      0.547290000000     0.476550000000     0.832730000000     0.0473434  
H3       H      0.477280000000     0.546360000000     0.832680000000     0.0473433  
H4       H      0.477440000000     0.546620000000     0.888430000000     0.0408095  
H5       H      0.509880000000     0.560800000000     0.789750000000     0.0396841  
H6       H      0.509860000000     0.560760000000     0.733940000000     0.0397349  
H7       H      0.514670000000     0.462010000000     0.734000000000     0.0397088  
H8       H      0.514690000000     0.462050000000     0.789810000000     0.0396927  
H9       H      0.547220000000     0.476450000000     0.691030000000     0.0473838  
H10      H      0.547010000000     0.476180000000     0.635280000000     0.0408287  
H11      H      0.477360000000     0.546480000000     0.635300000000     0.0408816  
H12      H      0.477240000000     0.546270000000     0.691050000000     0.047438   
H13      H      0.477000000000     0.476600000000     0.135290000000     0.0407068  
H14      H      0.477210000000     0.476400000000     0.191040000000     0.0473527  
H15      H      0.546920000000     0.546500000000     0.191120000000     0.0473644  
H16      H      0.547190000000     0.546370000000     0.135370000000     0.0407099  
H17      H      0.462680000000     0.508970000000     0.233980000000     0.0396431  
H18      H      0.462670000000     0.508940000000     0.289800000000     0.0397059  
H19      H      0.561420000000     0.513820000000     0.289820000000     0.0396375  
H20      H      0.561430000000     0.513850000000     0.234010000000     0.0396524  
H21      H      0.477180000000     0.476320000000     0.332710000000     0.047427   
H22      H      0.476940000000     0.476470000000     0.388460000000     0.0408346  
H23      H      0.547130000000     0.546230000000     0.388470000000     0.0408071  
H24      H      0.546890000000     0.546420000000     0.332730000000     0.047396   
H25      H      0.548360000000     0.634620000000     0.477870000000     0.0408503  
H26      H      0.548000000000     0.690360000000     0.477290000000     0.047592   
H27      H      0.475520000000     0.690700000000     0.544510000000     0.0474856  
H28      H      0.475480000000     0.634930000000     0.544820000000     0.0407197  
H29      H      0.561150000000     0.733400000000     0.510720000000     0.0397263  
H30      H      0.561140000000     0.789220000000     0.510040000000     0.039725   
H31      H      0.462270000000     0.789220000000     0.510840000000     0.0396361  
H32      H      0.462280000000     0.733380000000     0.510530000000     0.0396529  
H33      H      0.548150000000     0.831910000000     0.543960000000     0.0475392  
H34      H      0.548390000000     0.887640000000     0.544090000000     0.0408504  
H35      H      0.475110000000     0.888030000000     0.477560000000     0.0407669  
H36      H      0.475270000000     0.832250000000     0.477170000000     0.0475706  
H37      H      0.549160000000     0.134630000000     0.477480000000     0.040704   
H38      H      0.548980000000     0.190410000000     0.477060000000     0.0475422  
H39      H      0.476160000000     0.190750000000     0.543930000000     0.04744    
H40      H      0.475950000000     0.135020000000     0.544070000000     0.0407716  
H41      H      0.561990000000     0.233460000000     0.510700000000     0.0396536  
H42      H      0.561960000000     0.289310000000     0.510400000000     0.0396968  
H43      H      0.463090000000     0.289230000000     0.510690000000     0.0396369  
H44      H      0.463130000000     0.233420000000     0.510010000000     0.0396569  
H45      H      0.548750000000     0.331960000000     0.544410000000     0.0474808  
H46      H      0.548770000000     0.387730000000     0.544740000000     0.0407672  
H47      H      0.475800000000     0.388040000000     0.477870000000     0.040802   
H48      H      0.476180000000     0.332300000000     0.477270000000     0.0475002  
H49      H      0.547860000000     0.634700000000     0.046880000000     0.0408276  
H50      H      0.548240000000     0.690440000000     0.046770000000     0.047382   
H51      H      0.477510000000     0.690860000000     0.977680000000     0.0474169  
H52      H      0.477470000000     0.635130000000     0.977310000000     0.0407999  
H53      H      0.516050000000     0.733510000000     0.061650000000     0.0397349  
H54      H      0.516090000000     0.789310000000     0.061720000000     0.0397382  
H55      H      0.510130000000     0.789430000000     0.963010000000     0.0396187  
H56      H      0.510090000000     0.733640000000     0.962940000000     0.0396573  
H57      H      0.548330000000     0.832470000000     0.046900000000     0.0473965  
H58      H      0.547990000000     0.888230000000     0.047020000000     0.0407819  
H59      H      0.477480000000     0.887820000000     0.977570000000     0.0408663  
H60      H      0.477490000000     0.832110000000     0.977930000000     0.047403   
H61      H      0.546840000000     0.135190000000     0.977480000000     0.0408116  
H62      H      0.546830000000     0.190900000000     0.977840000000     0.0474362  
H63      H      0.476190000000     0.190540000000     0.047010000000     0.0473624  
H64      H      0.476530000000     0.134780000000     0.047130000000     0.0406246  
H65      H      0.508440000000     0.233700000000     0.061740000000     0.039689   
H66      H      0.508480000000     0.289510000000     0.061660000000     0.0397324  
H67      H      0.514230000000     0.289370000000     0.962940000000     0.0396642  
H68      H      0.514180000000     0.233580000000     0.963010000000     0.039579   
H69      H      0.546860000000     0.332150000000     0.977640000000     0.0474539  
H70      H      0.546900000000     0.387880000000     0.977270000000     0.0408094  
H71      H      0.476590000000     0.388310000000     0.046920000000     0.0408183  
H72      H      0.476220000000     0.332570000000     0.046810000000     0.047393   
H73      H      0.499890000000     0.963530000000     0.888340000000     0.038989   
H74      H      0.500350000000     0.963470000000     0.832240000000     0.0485907  
H75      H      0.523880000000     0.059320000000     0.832160000000     0.0485014  
H76      H      0.524370000000     0.059340000000     0.888260000000     0.0389845  
H77      H      0.547270000000     0.976800000000     0.790260000000     0.04081    
H78      H      0.548190000000     0.977380000000     0.734460000000     0.0392637  
H79      H      0.476020000000     0.045300000000     0.734420000000     0.0391757  
H80      H      0.476930000000     0.045930000000     0.790230000000     0.0407073  
H81      H      0.522990000000     0.963010000000     0.690550000000     0.0470348  
H82      H      0.524000000000     0.963390000000     0.634890000000     0.0389895  
H83      H      0.500280000000     0.059270000000     0.634870000000     0.039004   
H84      H      0.501250000000     0.059660000000     0.690540000000     0.0469692  
H85      H      0.475500000000     0.044530000000     0.135040000000     0.0407971  
H86      H      0.475710000000     0.044620000000     0.190800000000     0.0474237  
H87      H      0.548820000000     0.978090000000     0.190730000000     0.0475567  
H88      H      0.549020000000     0.978300000000     0.134960000000     0.0408179  
H89      H      0.462830000000     0.011060000000     0.233700000000     0.0396545  
H90      H      0.462820000000     0.011550000000     0.289530000000     0.0395768  
H91      H      0.561690000000     0.011010000000     0.289540000000     0.0396325  
H92      H      0.561690000000     0.011560000000     0.233710000000     0.0395414  
H93      H      0.475680000000     0.978020000000     0.332460000000     0.0476478  
H94      H      0.475450000000     0.978180000000     0.388230000000     0.040913   
H95      H      0.549000000000     0.044380000000     0.388240000000     0.0408848  
H96      H      0.548820000000     0.044520000000     0.332470000000     0.0474801  
H97      H      0.888610000000     0.546710000000     0.477280000000     0.0407645  
H98      H      0.832870000000     0.546820000000     0.477530000000     0.0473169  
H99      H      0.832970000000     0.476310000000     0.546840000000     0.0473985  
H100     H      0.888720000000     0.476540000000     0.547060000000     0.0408379  
H101     H      0.790020000000     0.514270000000     0.462800000000     0.0396202  
H102     H      0.734220000000     0.514210000000     0.462770000000     0.039589   
H103     H      0.734170000000     0.508660000000     0.561510000000     0.0396852  
H104     H      0.789980000000     0.508720000000     0.561540000000     0.039732   
H105     H      0.691300000000     0.546680000000     0.477450000000     0.0472661  
H106     H      0.635550000000     0.546470000000     0.477150000000     0.0407451  
H107     H      0.635520000000     0.476300000000     0.546930000000     0.0407624  
H108     H      0.691260000000     0.476170000000     0.546760000000     0.0473539  
H109     H      0.388550000000     0.476450000000     0.477100000000     0.0407218  
H110     H      0.332810000000     0.476700000000     0.477080000000     0.047256   
H111     H      0.333020000000     0.545960000000     0.547650000000     0.0473348  
H112     H      0.388760000000     0.546180000000     0.547330000000     0.0407865  
H113     H      0.289940000000     0.462020000000     0.509650000000     0.0395913  
H114     H      0.234140000000     0.462080000000     0.509670000000     0.0395814  
H115     H      0.234250000000     0.560790000000     0.515290000000     0.0396296  
H116     H      0.290050000000     0.560730000000     0.515260000000     0.0396119  
H117     H      0.191290000000     0.476870000000     0.477140000000     0.0472566  
H118     H      0.135550000000     0.476720000000     0.477200000000     0.0406852  
H119     H      0.135510000000     0.546450000000     0.547430000000     0.0407736  
H120     H      0.191260000000     0.546120000000     0.547710000000     0.0473576  
H121     H      0.888840000000     0.477970000000     0.048430000000     0.0408076  
H122     H      0.833080000000     0.477620000000     0.048190000000     0.0475255  
H123     H      0.832880000000     0.544710000000     0.975580000000     0.0476157  
H124     H      0.888650000000     0.544790000000     0.975430000000     0.0408539  
H125     H      0.790130000000     0.511250000000     0.061330000000     0.0396186  
H126     H      0.734300000000     0.510700000000     0.061340000000     0.0396389  
H127     H      0.734270000000     0.511270000000     0.962460000000     0.0397767  
H128     H      0.790110000000     0.510840000000     0.962440000000     0.0397853  
H129     H      0.691470000000     0.544500000000     0.048270000000     0.0474827  
H130     H      0.635720000000     0.544460000000     0.048480000000     0.0407369  
H131     H      0.635600000000     0.477750000000     0.975360000000     0.0408058  
H132     H      0.691370000000     0.477540000000     0.975550000000     0.0476336  
H133     H      0.135670000000     0.545340000000     0.048230000000     0.0406873  
H134     H      0.191430000000     0.545520000000     0.047960000000     0.0473909  
H135     H      0.191390000000     0.478540000000     0.975250000000     0.0476337  
H136     H      0.135620000000     0.478620000000     0.975130000000     0.0408682  
H137     H      0.234260000000     0.511750000000     0.061040000000     0.0395977  
H138     H      0.290090000000     0.512220000000     0.061060000000     0.0396085  
H139     H      0.290120000000     0.511780000000     0.962180000000     0.0397933  
H140     H      0.234280000000     0.512290000000     0.962160000000     0.0397141  
H141     H      0.332880000000     0.478410000000     0.047970000000     0.0474225  
H142     H      0.388640000000     0.478470000000     0.048240000000     0.0407688  
H143     H      0.388830000000     0.545250000000     0.975200000000     0.040792   
H144     H      0.333060000000     0.545460000000     0.975320000000     0.0475799  
H145     H      0.978630000000     0.548530000000     0.888620000000     0.0408663  
H146     H      0.978420000000     0.548330000000     0.832840000000     0.0476581  
H147     H      0.045500000000     0.475730000000     0.832750000000     0.0474546  
H148     H      0.045440000000     0.475530000000     0.888510000000     0.0407618  
H149     H      0.012060000000     0.561430000000     0.789900000000     0.0395986  
H150     H      0.011550000000     0.561390000000     0.734050000000     0.0396627  
H151     H      0.012190000000     0.462530000000     0.734130000000     0.0395304  
H152     H      0.011710000000     0.462570000000     0.789970000000     0.0395737  
H153     H      0.045340000000     0.548310000000     0.691210000000     0.0475352  
H154     H      0.045280000000     0.548430000000     0.635440000000     0.040833   
H155     H      0.978680000000     0.475230000000     0.635470000000     0.0408309  
H156     H      0.978470000000     0.475520000000     0.691230000000     0.04764    
H157     H      0.975790000000     0.478530000000     0.135500000000     0.0406992  
H158     H      0.975990000000     0.478430000000     0.191270000000     0.0474985  
H159     H      0.048580000000     0.545520000000     0.191240000000     0.0474559  
H160     H      0.048780000000     0.545350000000     0.135460000000     0.0407399  
H161     H      0.962830000000     0.512180000000     0.234090000000     0.0395988  
H162     H      0.962810000000     0.511660000000     0.289930000000     0.0396286  
H163     H      0.061680000000     0.512260000000     0.289980000000     0.0396573  
H164     H      0.061710000000     0.511800000000     0.234130000000     0.0395743  
H165     H      0.975850000000     0.545370000000     0.332840000000     0.0475492  
H166     H      0.975600000000     0.545150000000     0.388600000000     0.0407712  
H167     H      0.048740000000     0.478480000000     0.388570000000     0.0407671  
H168     H      0.048590000000     0.478440000000     0.332800000000     0.0475008  
H169     H      0.975910000000     0.888170000000     0.545060000000     0.0407932  
H170     H      0.976090000000     0.832420000000     0.545080000000     0.0475397  
H171     H      0.048720000000     0.832530000000     0.478010000000     0.0474655  
H172     H      0.048930000000     0.888290000000     0.478250000000     0.0406955  
H173     H      0.962940000000     0.789650000000     0.511260000000     0.0396873  
H174     H      0.962890000000     0.733820000000     0.511760000000     0.0396813  
H175     H      0.061760000000     0.733740000000     0.511190000000     0.0395893  
H176     H      0.061800000000     0.789570000000     0.511660000000     0.0396179  
H177     H      0.975910000000     0.690880000000     0.478090000000     0.0475965  
H178     H      0.975620000000     0.635120000000     0.478380000000     0.0408053  
H179     H      0.048750000000     0.635200000000     0.545070000000     0.0406708  
H180     H      0.048640000000     0.690950000000     0.545040000000     0.0474287  
H181     H      0.975290000000     0.135100000000     0.478390000000     0.0406697  
H182     H      0.975480000000     0.190860000000     0.478160000000     0.0474927  
H183     H      0.048300000000     0.190980000000     0.545020000000     0.0473943  
H184     H      0.048500000000     0.135230000000     0.544980000000     0.0406663  
H185     H      0.962480000000     0.233810000000     0.511860000000     0.0396333  
H186     H      0.962510000000     0.289640000000     0.511380000000     0.0396859  
H187     H      0.061370000000     0.289590000000     0.511660000000     0.0395788  
H188     H      0.061340000000     0.233760000000     0.511160000000     0.0395455  
H189     H      0.975700000000     0.332440000000     0.545180000000     0.0474739  
H190     H      0.975570000000     0.388200000000     0.545190000000     0.0407605  
H191     H      0.048510000000     0.388280000000     0.478300000000     0.0407296  
H192     H      0.048240000000     0.332530000000     0.478020000000     0.047433   
H193     H      0.635710000000     0.045740000000     0.477560000000     0.0408078  
H194     H      0.691430000000     0.045560000000     0.477700000000     0.0472678  
H195     H      0.691140000000     0.976550000000     0.548500000000     0.0474734  
H196     H      0.635370000000     0.976260000000     0.548040000000     0.0409905  
H197     H      0.734160000000     0.060460000000     0.510240000000     0.0395863  
H198     H      0.789960000000     0.060520000000     0.510030000000     0.0396011  
H199     H      0.790090000000     0.961840000000     0.516040000000     0.039675   
H200     H      0.734280000000     0.961770000000     0.516250000000     0.0396231  
H201     H      0.832660000000     0.045770000000     0.477330000000     0.0473289  
H202     H      0.888400000000     0.046110000000     0.477110000000     0.0407916  
H203     H      0.889010000000     0.976550000000     0.547500000000     0.0408688  
H204     H      0.833280000000     0.976690000000     0.548060000000     0.0474434  
H205     H      0.389000000000     0.046510000000     0.547940000000     0.0409536  
H206     H      0.333230000000     0.046330000000     0.548330000000     0.0473701  
H207     H      0.332880000000     0.977330000000     0.477520000000     0.0473066  
H208     H      0.388600000000     0.977030000000     0.477460000000     0.0408288  
H209     H      0.290170000000     0.061210000000     0.516020000000     0.0396046  
H210     H      0.234370000000     0.061290000000     0.515780000000     0.0395476  
H211     H      0.234270000000     0.962600000000     0.509770000000     0.0396003  
H212     H      0.290060000000     0.962530000000     0.510010000000     0.0396232  
H213     H      0.191150000000     0.046540000000     0.547810000000     0.0472869  
H214     H      0.135410000000     0.046770000000     0.547280000000     0.0407772  
H215     H      0.135850000000     0.977210000000     0.476900000000     0.0407614  
H216     H      0.191600000000     0.977450000000     0.477080000000     0.0473566  
H217     H      0.048360000000     0.888250000000     0.978690000000     0.0407743  
H218     H      0.048130000000     0.832500000000     0.978730000000     0.0475258  
H219     H      0.975400000000     0.832740000000     0.045690000000     0.0475115  
H220     H      0.975230000000     0.888510000000     0.045380000000     0.0407551  
H221     H      0.061210000000     0.789760000000     0.012590000000     0.0394927  
H222     H      0.061230000000     0.733940000000     0.012170000000     0.0396031  
H223     H      0.962360000000     0.733900000000     0.012710000000     0.0395766  
H224     H      0.962340000000     0.789730000000     0.012130000000     0.0396542  
H225     H      0.048220000000     0.691050000000     0.045870000000     0.0474483  
H226     H      0.048520000000     0.635290000000     0.045640000000     0.0408007  
H227     H      0.975330000000     0.635290000000     0.979010000000     0.0408381  
H228     H      0.975430000000     0.691040000000     0.978970000000     0.0476543  
H229     H      0.979290000000     0.135430000000     0.975400000000     0.040794   
H230     H      0.979230000000     0.191180000000     0.975690000000     0.0476115  
H231     H      0.046220000000     0.190970000000     0.048390000000     0.047324   
H232     H      0.046010000000     0.135200000000     0.048500000000     0.040635   
H233     H      0.013000000000     0.234000000000     0.962660000000     0.039484   
H234     H      0.012470000000     0.289830000000     0.962720000000     0.0395502  
H235     H      0.013010000000     0.289720000000     0.061600000000     0.0395179  
H236     H      0.012550000000     0.233880000000     0.061540000000     0.0395363  
H237     H      0.046130000000     0.332720000000     0.975820000000     0.0474623  
H238     H      0.045850000000     0.388470000000     0.975590000000     0.0407743  
H239     H      0.979200000000     0.388330000000     0.048760000000     0.0408621  
H240     H      0.979210000000     0.332570000000     0.048580000000     0.0476077  
H241     H      0.635800000000     0.977200000000     0.045590000000     0.0408937  
H242     H      0.691510000000     0.977340000000     0.045340000000     0.0473895  
H243     H      0.691120000000     0.047600000000     0.975780000000     0.0474488  
H244     H      0.635350000000     0.047120000000     0.975560000000     0.0410743  
H245     H      0.734080000000     0.010110000000     0.060090000000     0.0394988  
H246     H      0.789870000000     0.010170000000     0.060320000000     0.0395074  
H247     H      0.790270000000     0.015550000000     0.961580000000     0.0397229  
H248     H      0.734450000000     0.015480000000     0.961350000000     0.0397191  
H249     H      0.832710000000     0.977530000000     0.045880000000     0.0474032  
H250     H      0.888450000000     0.977490000000     0.046390000000     0.0408672  
H251     H      0.889050000000     0.047480000000     0.976430000000     0.0409547  
H252     H      0.833300000000     0.047860000000     0.976390000000     0.0473868  
H253     H      0.388740000000     0.045920000000     0.045860000000     0.0408516  
H254     H      0.333020000000     0.045740000000     0.045850000000     0.0472079  
H255     H      0.333160000000     0.976690000000     0.975090000000     0.0476083  
H256     H      0.388930000000     0.976390000000     0.975430000000     0.0410968  
H257     H      0.290090000000     0.961930000000     0.007440000000     0.0395527  
H258     H      0.234280000000     0.961980000000     0.007740000000     0.0394487  
H259     H      0.234410000000     0.060670000000     0.013700000000     0.0396309  
H260     H      0.290210000000     0.060610000000     0.013400000000     0.0396274  
H261     H      0.191710000000     0.045950000000     0.046420000000     0.047234   
H262     H      0.135960000000     0.046290000000     0.046640000000     0.0407938  
H263     H      0.135350000000     0.976670000000     0.976310000000     0.0408719  
H264     H      0.191090000000     0.976810000000     0.975740000000     0.0474925  
H265     H      0.045650000000     0.048230000000     0.635240000000     0.0407615  
H266     H      0.045840000000     0.048010000000     0.691010000000     0.0474442  
H267     H      0.978890000000     0.975290000000     0.691050000000     0.0476915  
H268     H      0.978970000000     0.975110000000     0.635290000000     0.0408601  
H269     H      0.012620000000     0.962220000000     0.733900000000     0.0395948  
H270     H      0.012110000000     0.962230000000     0.789740000000     0.0396882  
H271     H      0.012660000000     0.061090000000     0.789730000000     0.0394654  
H272     H      0.012160000000     0.061080000000     0.733890000000     0.0395972  
H273     H      0.045780000000     0.975280000000     0.832640000000     0.0475765  
H274     H      0.045600000000     0.975100000000     0.888420000000     0.0408472  
H275     H      0.978980000000     0.048290000000     0.888320000000     0.0407616  
H276     H      0.978890000000     0.048050000000     0.832550000000     0.0475531  
H277     H      0.978610000000     0.975330000000     0.135220000000     0.0408096  
H278     H      0.978430000000     0.975500000000     0.191000000000     0.0476472  
H279     H      0.045670000000     0.047950000000     0.191080000000     0.0473848  
H280     H      0.045600000000     0.048170000000     0.135310000000     0.0406907  
H281     H      0.012190000000     0.962290000000     0.233890000000     0.039585   
H282     H      0.011690000000     0.962280000000     0.289740000000     0.0396715  
H283     H      0.012300000000     0.061140000000     0.289760000000     0.0394982  
H284     H      0.011840000000     0.061150000000     0.233910000000     0.0395245  
H285     H      0.045540000000     0.975390000000     0.332590000000     0.0475287  
H286     H      0.045460000000     0.975200000000     0.388360000000     0.040816   
H287     H      0.978650000000     0.048210000000     0.388410000000     0.0408078  
H288     H      0.978490000000     0.048010000000     0.332640000000     0.047604   
O1       O      0.012200000000     0.011850000000     0.011820000000    -0.365579   
O2       O      0.994080000000     0.993940000000     0.082420000000    -0.290016   
O3       O      0.082960000000     0.029560000000     0.029730000000    -0.291365   
O4       O      0.029990000000     0.941090000000     0.994090000000    -0.290909   
O5       O      0.030200000000     0.029650000000     0.082490000000    -0.291739   
O6       O      0.993800000000     0.941270000000     0.029730000000    -0.290713   
O7       O      0.082740000000     0.993670000000     0.993780000000    -0.290143   
O8       O      0.994530000000     0.029930000000     0.941130000000    -0.291037   
O9       O      0.030390000000     0.082430000000     0.029920000000    -0.291682   
O10      O      0.030000000000     0.993580000000     0.941200000000    -0.290931   
O11      O      0.994660000000     0.082590000000     0.993820000000    -0.290132   
O12      O      0.941710000000     0.030180000000     0.993660000000    -0.290679   
O13      O      0.941410000000     0.994290000000     0.029610000000    -0.29066    
O14      O      0.012170000000     0.011700000000     0.511820000000    -0.364958   
O15      O      0.994090000000     0.029610000000     0.441220000000    -0.290716   
O16      O      0.082910000000     0.993970000000     0.493890000000    -0.290891   
O17      O      0.030010000000     0.082420000000     0.529620000000    -0.291893   
O18      O      0.030120000000     0.993800000000     0.441180000000    -0.290752   
O19      O      0.993890000000     0.082300000000     0.493910000000    -0.290933   
O20      O      0.082740000000     0.029820000000     0.529870000000    -0.291908   
O21      O      0.994500000000     0.993520000000     0.582480000000    -0.290136   
O22      O      0.030400000000     0.941090000000     0.493850000000    -0.291702   
O23      O      0.029990000000     0.029860000000     0.582450000000    -0.291695   
O24      O      0.994360000000     0.940980000000     0.529650000000    -0.291046   
O25      O      0.941650000000     0.993560000000     0.530010000000    -0.291063   
O26      O      0.941390000000     0.029400000000     0.494020000000    -0.291607   
O27      O      0.012190000000     0.511850000000     0.012020000000    -0.364949   
O28      O      0.030190000000     0.441230000000     0.994020000000    -0.290937   
O29      O      0.994250000000     0.494010000000     0.082700000000    -0.291134   
O30      O      0.082870000000     0.529790000000     0.029850000000    -0.291855   
O31      O      0.994500000000     0.441180000000     0.030170000000    -0.290686   
O32      O      0.082810000000     0.494020000000     0.993780000000    -0.290832   
O33      O      0.030320000000     0.529770000000     0.082650000000    -0.291875   
O34      O      0.993950000000     0.582490000000     0.994370000000    -0.290051   
O35      O      0.941600000000     0.493700000000     0.030010000000    -0.291803   
O36      O      0.030180000000     0.582480000000     0.029980000000    -0.291581   
O37      O      0.941490000000     0.529540000000     0.994020000000    -0.290965   
O38      O      0.994240000000     0.530040000000     0.941420000000    -0.290859   
O39      O      0.029920000000     0.493890000000     0.941320000000    -0.291836   
O40      O      0.012100000000     0.511700000000     0.512020000000    -0.364395   
O41      O      0.994120000000     0.441010000000     0.529830000000    -0.29108    
O42      O      0.030210000000     0.493900000000     0.441380000000    -0.291721   
O43      O      0.941420000000     0.529600000000     0.494140000000    -0.292042   
O44      O      0.030100000000     0.441070000000     0.493970000000    -0.291747   
O45      O      0.941490000000     0.493700000000     0.530070000000    -0.291899   
O46      O      0.994050000000     0.529580000000     0.441400000000    -0.290959   
O47      O      0.030140000000     0.582390000000     0.529760000000    -0.291998   
O48      O      0.082760000000     0.493740000000     0.494190000000    -0.2921     
O49      O      0.994050000000     0.582330000000     0.494020000000    -0.29095    
O50      O      0.082710000000     0.529620000000     0.530140000000    -0.291929   
O51      O      0.029840000000     0.529880000000     0.582650000000    -0.291689   
O52      O      0.994260000000     0.493620000000     0.582650000000    -0.290871   
O53      O      0.512210000000     0.011510000000     0.011440000000    -0.364893   
O54      O      0.441790000000     0.993260000000     0.992900000000    -0.289286   
O55      O      0.493850000000     0.028970000000     0.082180000000    -0.291525   
O56      O      0.530740000000     0.941010000000     0.029770000000    -0.291507   
O57      O      0.441490000000     0.028950000000     0.029070000000    -0.291845   
O58      O      0.494570000000     0.940640000000     0.994120000000    -0.291412   
O59      O      0.530660000000     0.993970000000     0.082140000000    -0.290699   
O60      O      0.582560000000     0.029850000000     0.992800000000    -0.290067   
O61      O      0.493780000000     0.082000000000     0.029870000000    -0.291747   
O62      O      0.582980000000     0.994160000000     0.028980000000    -0.290915   
O63      O      0.529750000000     0.082380000000     0.994030000000    -0.291447   
O64      O      0.528960000000     0.030550000000     0.940710000000    -0.291315   
O65      O      0.495340000000     0.992400000000     0.940750000000    -0.290297   
O66      O      0.512170000000     0.011330000000     0.511780000000    -0.364218   
O67      O      0.441790000000     0.029570000000     0.530400000000    -0.291156   
O68      O      0.493790000000     0.993810000000     0.441070000000    -0.29076    
O69      O      0.530650000000     0.081840000000     0.493400000000    -0.291849   
O70      O      0.441420000000     0.993920000000     0.494200000000    -0.291119   
O71      O      0.494480000000     0.082220000000     0.529040000000    -0.292423   
O72      O      0.530610000000     0.028800000000     0.441070000000    -0.291496   
O73      O      0.582550000000     0.993120000000     0.530450000000    -0.290227   
O74      O      0.493660000000     0.940820000000     0.493440000000    -0.291576   
O75      O      0.582920000000     0.028780000000     0.494250000000    -0.291893   
O76      O      0.529870000000     0.940440000000     0.529050000000    -0.292217   
O77      O      0.528910000000     0.992210000000     0.582480000000    -0.290455   
O78      O      0.495400000000     0.030450000000     0.582470000000    -0.291272   
O79      O      0.512200000000     0.511500000000     0.011890000000    -0.364394   
O80      O      0.441610000000     0.529660000000     0.993780000000    -0.290932   
O81      O      0.493930000000     0.440980000000     0.029890000000    -0.291822   
O82      O      0.530080000000     0.493420000000     0.941270000000    -0.292      
O83      O      0.441460000000     0.493860000000     0.029810000000    -0.291929   
O84      O      0.494420000000     0.529590000000     0.941250000000    -0.291952   
O85      O      0.529930000000     0.440790000000     0.994050000000    -0.290912   
O86      O      0.582900000000     0.529120000000     0.029940000000    -0.291907   
O87      O      0.494080000000     0.493650000000     0.082520000000    -0.292248   
O88      O      0.582810000000     0.493340000000     0.993890000000    -0.290939   
O89      O      0.530200000000     0.529350000000     0.082560000000    -0.292185   
O90      O      0.530440000000     0.582020000000     0.029920000000    -0.291849   
O91      O      0.494490000000     0.582220000000     0.994030000000    -0.290975   
O92      O      0.512100000000     0.511330000000     0.511870000000    -0.363762   
O93      O      0.530170000000     0.440620000000     0.529570000000    -0.291719   
O94      O      0.441400000000     0.493390000000     0.494060000000    -0.29204    
O95      O      0.494340000000     0.529440000000     0.582500000000    -0.291776   
O96      O      0.494100000000     0.440740000000     0.493800000000    -0.291937   
O97      O      0.529950000000     0.493210000000     0.582470000000    -0.291887   
O98      O      0.441500000000     0.529280000000     0.530010000000    -0.291977   
O99      O      0.530070000000     0.581920000000     0.493800000000    -0.292021   
O100     O      0.493980000000     0.493490000000     0.441260000000    -0.292052   
O101     O      0.494050000000     0.582040000000     0.529620000000    -0.291864   
O102     O      0.530120000000     0.529180000000     0.441260000000    -0.292074   
O103     O      0.582760000000     0.529280000000     0.493980000000    -0.292076   
O104     O      0.582720000000     0.493380000000     0.529910000000    -0.291921   
Zn1      Zn     0.986110000000     0.986090000000     0.037640000000     0.449195   
Zn2      Zn     0.038200000000     0.037620000000     0.037740000000     0.44734    
Zn3      Zn     0.037970000000     0.985800000000     0.985980000000     0.449429   
Zn4      Zn     0.986540000000     0.037890000000     0.985860000000     0.449431   
Zn5      Zn     0.986120000000     0.037500000000     0.485990000000     0.448584   
Zn6      Zn     0.038160000000     0.985890000000     0.485940000000     0.448558   
Zn7      Zn     0.037960000000     0.037700000000     0.537680000000     0.447976   
Zn8      Zn     0.986430000000     0.985690000000     0.537730000000     0.44981    
Zn9      Zn     0.038020000000     0.485990000000     0.986050000000     0.448765   
Zn10     Zn     0.986380000000     0.485940000000     0.037970000000     0.448765   
Zn11     Zn     0.038150000000     0.537720000000     0.037870000000     0.4479     
Zn12     Zn     0.986220000000     0.537740000000     0.986210000000     0.449634   
Zn13     Zn     0.986260000000     0.485750000000     0.537890000000     0.449104   
Zn14     Zn     0.038030000000     0.485860000000     0.486140000000     0.448215   
Zn15     Zn     0.986150000000     0.537550000000     0.486150000000     0.44911    
Zn16     Zn     0.037940000000     0.537650000000     0.537890000000     0.448236   
Zn17     Zn     0.486710000000     0.985220000000     0.985550000000     0.449362   
Zn18     Zn     0.486090000000     0.037100000000     0.037400000000     0.447792   
Zn19     Zn     0.538390000000     0.985920000000     0.037340000000     0.448553   
Zn20     Zn     0.537630000000     0.037800000000     0.985480000000     0.448617   
Zn21     Zn     0.486710000000     0.037630000000     0.537680000000     0.447987   
Zn22     Zn     0.486010000000     0.985730000000     0.485860000000     0.448869   
Zn23     Zn     0.538330000000     0.036930000000     0.485870000000     0.448007   
Zn24     Zn     0.537630000000     0.985030000000     0.537700000000     0.448814   
Zn25     Zn     0.486420000000     0.537500000000     0.985990000000     0.449037   
Zn26     Zn     0.486170000000     0.485760000000     0.037770000000     0.448435   
Zn27     Zn     0.538010000000     0.485510000000     0.986030000000     0.449085   
Zn28     Zn     0.538180000000     0.537240000000     0.037820000000     0.448427   
Zn29     Zn     0.537970000000     0.485370000000     0.537710000000     0.448523   
Zn30     Zn     0.486130000000     0.485500000000     0.486010000000     0.448681   
Zn31     Zn     0.486270000000     0.537280000000     0.537750000000     0.448489   
Zn32     Zn     0.538020000000     0.537170000000     0.485990000000     0.448814   


