data_structure

_audit_creation_method RASPA-1.0
_audit_creation_date 2023-5-19
_audit_author_name 'Poobodin Mano'

_cell_length_a    25.4929
_cell_length_b    25.5888
_cell_length_c    25.7065
_cell_angle_alpha 90
_cell_angle_beta  90
_cell_angle_gamma 90
_cell_volume      16769.2

_symmetry_cell_setting          triclinic
_symmetry_space_group_name_Hall 'P 1'
_symmetry_space_group_name_H-M  'P 1'
_symmetry_Int_Tables_number     1

_symmetry_equiv_pos_as_xyz 'x,y,z'

loop_
_atom_site_label
_atom_site_type_symbol
_atom_site_fract_x
_atom_site_fract_y
_atom_site_fract_z
_atom_site_charge
C1       C      0.005510000000     0.133570000000     0.016420000000     0.363344   
C2       C      0.017350000000     0.983120000000     0.149480000000     0.362257   
C3       C      0.865660000000     0.985320000000     0.996080000000     0.364891   
C4       C      0.017060000000     0.847210000000     0.018130000000     0.365241   
C5       C      0.156790000000     0.997670000000     0.995790000000     0.366392   
C6       C      0.011190000000     0.986690000000     0.862880000000     0.358924   
C7       C      0.977080000000     0.142840000000     0.499410000000     0.365584   
C8       C      0.018380000000     0.997290000000     0.363390000000     0.361705   
C9       C      0.140530000000     0.017500000000     0.530790000000     0.362252   
C10      C      0.007070000000     0.855450000000     0.495460000000     0.36147    
C11      C      0.854760000000     0.990690000000     0.497540000000     0.364942   
C12      C      0.989820000000     0.993140000000     0.649100000000     0.364043   
C13      C      0.003490000000     0.347540000000     0.030190000000     0.359531   
C14      C      0.008460000000     0.501050000000     0.157960000000     0.365514   
C15      C      0.158320000000     0.479050000000     0.011930000000     0.367724   
C16      C      0.020370000000     0.631970000000     0.013940000000     0.36536    
C17      C      0.869830000000     0.501660000000     0.003210000000     0.368502   
C18      C      0.022900000000     0.485400000000     0.871820000000     0.364021   
C19      C      0.012530000000     0.348560000000     0.507930000000     0.365449   
C20      C      0.010280000000     0.498130000000     0.373030000000     0.361486   
C21      C      0.864370000000     0.486140000000     0.515150000000     0.36547    
C22      C      0.004970000000     0.641020000000     0.512290000000     0.361766   
C23      C      0.153350000000     0.494850000000     0.521580000000     0.366811   
C24      C      0.008680000000     0.492820000000     0.658220000000     0.361796   
C25      C      0.489860000000     0.872680000000     0.995800000000     0.363739   
C26      C      0.361300000000     0.033190000000     0.969880000000     0.365855   
C27      C      0.492750000000     0.021410000000     0.130750000000     0.363615   
C28      C      0.521200000000     0.161070000000     0.988680000000     0.364277   
C29      C      0.511560000000     0.011150000000     0.843250000000     0.363416   
C30      C      0.650210000000     0.006310000000     0.994680000000     0.360266   
C31      C      0.504800000000     0.001460000000     0.628340000000     0.364393   
C32      C      0.347740000000     0.009500000000     0.498650000000     0.362839   
C33      C      0.493910000000     0.154970000000     0.489300000000     0.36797    
C34      C      0.480780000000     0.009820000000     0.344370000000     0.361301   
C35      C      0.504900000000     0.868130000000     0.479440000000     0.365755   
C36      C      0.641850000000     0.017380000000     0.482140000000     0.366603   
C37      C      0.368090000000     0.514420000000     0.007650000000     0.365515   
C38      C      0.515190000000     0.375590000000     0.985620000000     0.361861   
C39      C      0.502770000000     0.511260000000     0.848910000000     0.367547   
C40      C      0.656540000000     0.527960000000     0.992160000000     0.364008   
C41      C      0.519700000000     0.518590000000     0.138820000000     0.362636   
C42      C      0.506840000000     0.661320000000     0.983030000000     0.362463   
C43      C      0.357440000000     0.505720000000     0.483500000000     0.366722   
C44      C      0.500720000000     0.365870000000     0.510430000000     0.36682    
C45      C      0.506590000000     0.510230000000     0.354060000000     0.355841   
C46      C      0.647680000000     0.497440000000     0.503260000000     0.365558   
C47      C      0.493710000000     0.524210000000     0.637520000000     0.362003   
C48      C      0.506970000000     0.655170000000     0.497570000000     0.365857   
C49      C      0.538580000000     0.547350000000     0.719410000000    -0.0138741  
C50      C      0.442260000000     0.526310000000     0.719550000000    -0.0192166  
C51      C      0.547130000000     0.509610000000     0.764590000000    -0.0125207  
C52      C      0.450200000000     0.492190000000     0.768130000000     0.0102805  
C53      C      0.402420000000     0.492900000000     0.800600000000     0.0632114  
C54      C      0.509620000000     0.462610000000     0.270540000000    -0.0137992  
C55      C      0.490450000000     0.559060000000     0.272970000000    -0.0191508  
C56      C      0.538760000000     0.470080000000     0.218920000000    -0.0141424  
C57      C      0.523730000000     0.567060000000     0.223770000000     0.00993078 
C58      C      0.503630000000     0.613520000000     0.195970000000     0.0623405  
C59      C      0.456630000000     0.737200000000     0.501560000000    -0.0127511  
C60      C      0.554920000000     0.738060000000     0.510600000000    -0.0185945  
C61      C      0.459390000000     0.785160000000     0.466650000000    -0.0128257  
C62      C      0.557980000000     0.785590000000     0.473940000000     0.0102581  
C63      C      0.604330000000     0.817240000000     0.488150000000     0.0609065  
C64      C      0.550840000000     0.283470000000     0.511920000000    -0.0119538  
C65      C      0.454750000000     0.284540000000     0.533810000000    -0.0183773  
C66      C      0.542610000000     0.235910000000     0.477130000000    -0.0126571  
C67      C      0.445090000000     0.239300000000     0.495680000000     0.0109444  
C68      C      0.399690000000     0.208420000000     0.514050000000     0.060687   
C69      C      0.545410000000     0.746670000000     0.007950000000    -0.0123492  
C70      C      0.472210000000     0.742760000000     0.942740000000    -0.0197706  
C71      C      0.516360000000     0.789670000000     0.037330000000    -0.0151648  
C72      C      0.444100000000     0.787060000000     0.972120000000     0.00883839 
C73      C      0.409340000000     0.815670000000     0.936120000000     0.0667084  
C74      C      0.473740000000     0.291280000000     0.008780000000    -0.012552   
C75      C      0.544060000000     0.294620000000     0.940570000000    -0.0200537  
C76      C      0.500290000000     0.243920000000     0.033090000000    -0.0147274  
C77      C      0.569090000000     0.245070000000     0.963870000000     0.00913669 
C78      C      0.596730000000     0.216620000000     0.922100000000     0.0671436  
C79      C      0.485930000000     0.957090000000     0.712000000000    -0.0115135  
C80      C      0.559190000000     0.021060000000     0.705450000000    -0.019115   
C81      C      0.468260000000     0.982000000000     0.763010000000    -0.0165835  
C82      C      0.543590000000     0.046440000000     0.757280000000     0.00858545 
C83      C      0.592350000000     0.064670000000     0.782600000000     0.0691805  
C84      C      0.503590000000     0.966880000000     0.261100000000    -0.0129943  
C85      C      0.432660000000     0.033870000000     0.263640000000    -0.0196792  
C86      C      0.528970000000     0.994300000000     0.215120000000    -0.0144067  
C87      C      0.454920000000     0.059680000000     0.213990000000     0.00852506 
C88      C      0.410280000000     0.081000000000     0.184110000000     0.0654451  
C89      C      0.730540000000     0.531510000000     0.537630000000    -0.0125102  
C90      C      0.723840000000     0.438090000000     0.508180000000    -0.018866   
C91      C      0.783970000000     0.535800000000     0.512330000000    -0.0120455  
C92      C      0.782440000000     0.439380000000     0.492380000000     0.00867133 
C93      C      0.807270000000     0.389060000000     0.506070000000     0.0613816  
C94      C      0.271090000000     0.547730000000     0.474660000000    -0.0133569  
C95      C      0.278620000000     0.449870000000     0.479190000000    -0.0173321  
C96      C      0.234100000000     0.546890000000     0.521850000000    -0.0139387  
C97      C      0.240630000000     0.448950000000     0.525230000000     0.0110145  
C98      C      0.211660000000     0.399010000000     0.527180000000     0.0634691  
C99      C      0.740110000000     0.525350000000     0.943260000000    -0.0123383  
C100     C      0.738440000000     0.554300000000     0.036110000000    -0.0181854  
C101     C      0.789140000000     0.492610000000     0.953460000000    -0.0137441  
C102     C      0.785570000000     0.519210000000     0.048750000000     0.0102585  
C103     C      0.816350000000     0.545180000000     0.090110000000     0.0717047  
C104     C      0.287900000000     0.505760000000     0.061460000000    -0.0133933  
C105     C      0.281900000000     0.524540000000     0.965430000000    -0.0204062  
C106     C      0.242650000000     0.466750000000     0.056250000000    -0.011874   
C107     C      0.240830000000     0.481160000000     0.959310000000     0.0111635  
C108     C      0.207420000000     0.492850000000     0.913740000000     0.0639232  
C109     C      0.040590000000     0.535490000000     0.791430000000    -0.0127088  
C110     C      0.035850000000     0.437910000000     0.789070000000    -0.0185047  
C111     C      0.008150000000     0.538950000000     0.741600000000    -0.0143178  
C112     C      0.000990000000     0.440220000000     0.740260000000     0.00920134 
C113     C      0.011710000000     0.392920000000     0.708970000000     0.0660312  
C114     C      0.056860000000     0.488650000000     0.289900000000    -0.0119909  
C115     C      0.958310000000     0.485950000000     0.293930000000    -0.0186813  
C116     C      0.053700000000     0.520320000000     0.239780000000    -0.0138795  
C117     C      0.955370000000     0.511640000000     0.239940000000     0.00864017 
C118     C      0.909040000000     0.490530000000     0.212580000000     0.0705676  
C119     C      0.954670000000     0.723290000000     0.509940000000    -0.0133785  
C120     C      0.053090000000     0.724010000000     0.520820000000    -0.0185987  
C121     C      0.958460000000     0.774060000000     0.478400000000    -0.0135734  
C122     C      0.056440000000     0.770680000000     0.483390000000     0.00994863 
C123     C      0.105520000000     0.799580000000     0.493420000000     0.0656462  
C124     C      0.020810000000     0.265760000000     0.457790000000    -0.0142141  
C125     C      0.003330000000     0.264490000000     0.554280000000    -0.0205993  
C126     C      0.976350000000     0.225400000000     0.449920000000    -0.0141531  
C127     C      0.957530000000     0.227270000000     0.545280000000     0.0122212  
C128     C      0.945910000000     0.196470000000     0.592500000000     0.0675063  
C129     C      0.727670000000     0.014610000000     0.436820000000    -0.0125111  
C130     C      0.722800000000     0.030310000000     0.533310000000    -0.0186573  
C131     C      0.775110000000     0.978920000000     0.445350000000    -0.013321   
C132     C      0.767260000000     0.990790000000     0.542280000000     0.0105139  
C133     C      0.795420000000     0.005060000000     0.590530000000     0.0635436  
C134     C      0.262840000000     0.055720000000     0.487240000000    -0.0152958  
C135     C      0.265570000000     0.963240000000     0.522040000000    -0.0209248  
C136     C      0.221150000000     0.069690000000     0.528320000000    -0.0124831  
C137     C      0.224750000000     0.978720000000     0.562850000000     0.0134129  
C138     C      0.193750000000     0.933350000000     0.580560000000     0.063881   
C139     C      0.071060000000     0.767630000000     0.028460000000    -0.0123025  
C140     C      0.974010000000     0.765220000000     0.043940000000    -0.0180574  
C141     C      0.068400000000     0.713500000000     0.003040000000    -0.0140451  
C142     C      0.969450000000     0.714920000000     0.012150000000     0.0111499  
C143     C      0.923670000000     0.685170000000     0.031440000000     0.064823   
C144     C      0.052480000000     0.266400000000     0.047240000000    -0.0121028  
C145     C      0.954280000000     0.266220000000     0.048160000000    -0.0179333  
C146     C      0.052990000000     0.215790000000     0.015990000000    -0.0137981  
C147     C      0.953560000000     0.216430000000     0.014350000000     0.0103576  
C148     C      0.906770000000     0.185240000000     0.028130000000     0.0617082  
C149     C      0.737730000000     0.038800000000     0.967590000000    -0.0154631  
C150     C      0.729470000000     0.973210000000     0.039950000000    -0.0196944  
C151     C      0.785660000000     0.009300000000     0.947010000000    -0.0138512  
C152     C      0.777370000000     0.943900000000     0.018350000000     0.0101275  
C153     C      0.802480000000     0.914380000000     0.060950000000     0.0662569  
C154     C      0.239960000000     0.036640000000     0.027300000000    -0.0138746  
C155     C      0.239850000000     0.974110000000     0.951050000000    -0.0205066  
C156     C      0.277300000000     0.072510000000     0.997330000000    -0.0147317  
C157     C      0.276550000000     0.011840000000     0.922350000000     0.0110027  
C158     C      0.306470000000     0.984560000000     0.881380000000     0.0681891  
C159     C      0.984360000000     0.039300000000     0.733320000000    -0.0135839  
C160     C      0.977360000000     0.941640000000     0.729840000000    -0.0182217  
C161     C      0.019380000000     0.035360000000     0.781250000000    -0.0138915  
C162     C      0.013190000000     0.937120000000     0.778080000000     0.00855107 
C163     C      0.997790000000     0.889850000000     0.807380000000     0.065399   
C164     C      0.974220000000     0.007250000000     0.279040000000    -0.0134245  
C165     C      0.072650000000     0.997010000000     0.283160000000    -0.0196263  
C166     C      0.972450000000     0.970610000000     0.232580000000    -0.0128247  
C167     C      0.070430000000     0.966780000000     0.231120000000     0.00961212 
C168     C      0.118590000000     0.976760000000     0.200820000000     0.0633192  
H1       H      0.556040000000     0.470170000000     0.748680000000     0.0490886  
H2       H      0.574630000000     0.547900000000     0.695070000000     0.0506514  
H3       H      0.455110000000     0.451340000000     0.754160000000     0.0450326  
H4       H      0.410000000000     0.510000000000     0.695320000000     0.0544702  
H5       H      0.532400000000     0.587280000000     0.735390000000     0.0485848  
H6       H      0.430030000000     0.566100000000     0.732160000000     0.051776   
H7       H      0.581570000000     0.523100000000     0.787580000000     0.0478719  
H8       H      0.581420000000     0.472340000000     0.227690000000     0.0466547  
H9       H      0.528760000000     0.430620000000     0.292830000000     0.0503863  
H10      H      0.564750000000     0.575290000000     0.236020000000     0.0462657  
H11      H      0.494200000000     0.594320000000     0.298120000000     0.053576   
H12      H      0.469000000000     0.449590000000     0.261550000000     0.0468915  
H13      H      0.448420000000     0.554990000000     0.261820000000     0.0526525  
H14      H      0.532790000000     0.434860000000     0.194260000000     0.049349   
H15      H      0.459500000000     0.771560000000     0.425550000000     0.0472563  
H16      H      0.422680000000     0.712630000000     0.489730000000     0.0502999  
H17      H      0.563690000000     0.770900000000     0.433620000000     0.0455316  
H18      H      0.590490000000     0.713370000000     0.505160000000     0.0523368  
H19      H      0.449230000000     0.750670000000     0.542030000000     0.0485175  
H20      H      0.554230000000     0.751830000000     0.551680000000     0.0521962  
H21      H      0.423420000000     0.809140000000     0.472210000000     0.0494401  
H22      H      0.539580000000     0.249810000000     0.436260000000     0.047287   
H23      H      0.583450000000     0.307740000000     0.496310000000     0.0486914  
H24      H      0.435030000000     0.256190000000     0.457090000000     0.0462675  
H25      H      0.419520000000     0.310290000000     0.534990000000     0.0529569  
H26      H      0.562980000000     0.269270000000     0.550990000000     0.0481769  
H27      H      0.461410000000     0.268500000000     0.573540000000     0.0533178  
H28      H      0.577630000000     0.210030000000     0.479500000000     0.0475403  
H29      H      0.490910000000     0.770950000000     0.067140000000     0.0512525  
H30      H      0.569020000000     0.723640000000     0.036140000000     0.0544225  
H31      H      0.418150000000     0.768070000000     0.001340000000     0.0457568  
H32      H      0.442610000000     0.716430000000     0.924730000000     0.0564064  
H33      H      0.573140000000     0.765450000000     0.980260000000     0.047632   
H34      H      0.496060000000     0.760120000000     0.910840000000     0.0516393  
H35      H      0.545570000000     0.814090000000     0.058250000000     0.0534845  
H36      H      0.528640000000     0.258030000000     0.062840000000     0.0473869  
H37      H      0.453770000000     0.313770000000     0.040010000000     0.0518253  
H38      H      0.599410000000     0.258200000000     0.992100000000     0.0446917  
H39      H      0.575420000000     0.319770000000     0.923850000000     0.0561713  
H40      H      0.443150000000     0.277270000000     0.981250000000     0.0486243  
H41      H      0.517520000000     0.283050000000     0.908160000000     0.052121   
H42      H      0.470030000000     0.220620000000     0.053800000000     0.0541244  
H43      H      0.436430000000     0.010390000000     0.754220000000     0.0526489  
H44      H      0.451010000000     0.940970000000     0.691630000000     0.0525663  
H45      H      0.519380000000     0.081460000000     0.748370000000     0.0484392  
H46      H      0.577870000000     0.051070000000     0.680190000000     0.0571759  
H47      H      0.512830000000     0.924120000000     0.721100000000     0.0480728  
H48      H      0.589300000000     0.990420000000     0.712990000000     0.0507802  
H49      H      0.450790000000     0.950610000000     0.787370000000     0.0602592  
H50      H      0.558300000000     0.022680000000     0.230240000000     0.0481575  
H51      H      0.534560000000     0.946660000000     0.283920000000     0.052361   
H52      H      0.479400000000     0.093360000000     0.226540000000     0.0444153  
H53      H      0.413950000000     0.064350000000     0.288320000000     0.055452   
H54      H      0.476310000000     0.936560000000     0.245940000000     0.0478071  
H55      H      0.401550000000     0.005470000000     0.252400000000     0.0509835  
H56      H      0.550710000000     0.964460000000     0.192300000000     0.052756   
H57      H      0.779020000000     0.548140000000     0.471100000000     0.0516685  
H58      H      0.711070000000     0.570370000000     0.535360000000     0.0497609  
H59      H      0.783840000000     0.442650000000     0.449260000000     0.0430635  
H60      H      0.702040000000     0.412590000000     0.480560000000     0.0526607  
H61      H      0.735560000000     0.521080000000     0.579350000000     0.0495102  
H62      H      0.720050000000     0.419790000000     0.547320000000     0.0498278  
H63      H      0.806890000000     0.566560000000     0.532940000000     0.0458702  
H64      H      0.257920000000     0.551890000000     0.557760000000     0.0494537  
H65      H      0.294220000000     0.584610000000     0.474990000000     0.0480961  
H66      H      0.264940000000     0.450870000000     0.561110000000     0.0485347  
H67      H      0.307370000000     0.417240000000     0.482360000000     0.0516969  
H68      H      0.247000000000     0.546680000000     0.438610000000     0.04758    
H69      H      0.255800000000     0.444060000000     0.442720000000     0.0518338  
H70      H      0.206420000000     0.580390000000     0.518870000000     0.0489845  
H71      H      0.776760000000     0.451220000000     0.958260000000     0.0478398  
H72      H      0.716590000000     0.506690000000     0.911920000000     0.0504571  
H73      H      0.770750000000     0.481380000000     0.064140000000     0.0499775  
H74      H      0.713080000000     0.557510000000     0.071240000000     0.055368   
H75      H      0.752950000000     0.564210000000     0.928660000000     0.0475475  
H76      H      0.752560000000     0.594230000000     0.025960000000     0.0555039  
H77      H      0.815080000000     0.494230000000     0.918670000000     0.0490979  
H78      H      0.259910000000     0.426940000000     0.053540000000     0.0459979  
H79      H      0.315170000000     0.492450000000     0.092510000000     0.0497721  
H80      H      0.261840000000     0.443850000000     0.951680000000     0.047945   
H81      H      0.305500000000     0.527230000000     0.929080000000     0.0617346  
H82      H      0.271120000000     0.543800000000     0.074090000000     0.0485643  
H83      H      0.261600000000     0.562620000000     0.971330000000     0.0539074  
H84      H      0.218100000000     0.467860000000     0.092040000000     0.046331   
H85      H      0.966710000000     0.546620000000     0.752780000000     0.0480826  
H86      H      0.032780000000     0.570510000000     0.815830000000     0.053221   
H87      H      0.959310000000     0.438850000000     0.752930000000     0.0477441  
H88      H      0.025090000000     0.402870000000     0.812450000000     0.0552912  
H89      H      0.082760000000     0.536540000000     0.780390000000     0.0528397  
H90      H      0.077670000000     0.433920000000     0.777150000000     0.0560944  
H91      H      0.021670000000     0.573170000000     0.718520000000     0.0513763  
H92      H      0.052690000000     0.562600000000     0.249770000000     0.0494725  
H93      H      0.092130000000     0.501190000000     0.312170000000     0.047262   
H94      H      0.948110000000     0.554020000000     0.246240000000     0.0471172  
H95      H      0.924430000000     0.499300000000     0.317830000000     0.0540113  
H96      H      0.061260000000     0.446570000000     0.279960000000     0.0492209  
H97      H      0.954340000000     0.442820000000     0.289520000000     0.0504637  
H98      H      0.089890000000     0.512700000000     0.216780000000     0.0491127  
H99      H      0.957230000000     0.763430000000     0.436480000000     0.0460647  
H100     H      0.922030000000     0.699010000000     0.494430000000     0.0493779  
H101     H      0.058640000000     0.754970000000     0.443100000000     0.0449872  
H102     H      0.088440000000     0.698860000000     0.515900000000     0.0520582  
H103     H      0.944260000000     0.733800000000     0.550620000000     0.0481634  
H104     H      0.052380000000     0.738510000000     0.561650000000     0.0554637  
H105     H      0.923260000000     0.798500000000     0.486270000000     0.0500494  
H106     H      0.939720000000     0.246910000000     0.440280000000     0.0495622  
H107     H      0.022510000000     0.291990000000     0.423340000000     0.0502162  
H108     H      0.922380000000     0.251860000000     0.537570000000     0.052102   
H109     H      0.995490000000     0.289560000000     0.588770000000     0.0653691  
H110     H      0.058640000000     0.244300000000     0.460380000000     0.0502181  
H111     H      0.039080000000     0.241040000000     0.562850000000     0.0590635  
H112     H      0.986360000000     0.199620000000     0.416510000000     0.0482799  
H113     H      0.760780000000     0.937870000000     0.445600000000     0.0494037  
H114     H      0.704780000000     0.000340000000     0.402860000000     0.0507406  
H115     H      0.749390000000     0.951550000000     0.547940000000     0.0493192  
H116     H      0.695750000000     0.029320000000     0.567320000000     0.0557415  
H117     H      0.742520000000     0.054240000000     0.426960000000     0.0477417  
H118     H      0.739700000000     0.070360000000     0.530640000000     0.0536456  
H119     H      0.802430000000     0.982780000000     0.411810000000     0.0488393  
H120     H      0.241440000000     0.085660000000     0.563160000000     0.051346   
H121     H      0.287620000000     0.090740000000     0.480050000000     0.056936   
H122     H      0.246910000000     0.993080000000     0.597300000000     0.045705   
H123     H      0.292190000000     0.932970000000     0.538390000000     0.0571978  
H124     H      0.242420000000     0.045830000000     0.450310000000     0.0504301  
H125     H      0.244960000000     0.945600000000     0.488150000000     0.0585287  
H126     H      0.194590000000     0.100370000000     0.512520000000     0.0476255  
H127     H      0.070510000000     0.718950000000     0.960170000000     0.0492287  
H128     H      0.102820000000     0.790820000000     0.009850000000     0.0519193  
H129     H      0.961950000000     0.725570000000     0.970860000000     0.0504381  
H130     H      0.937190000000     0.788270000000     0.039500000000     0.0579984  
H131     H      0.082110000000     0.762180000000     0.069960000000     0.0467041  
H132     H      0.978860000000     0.755310000000     0.085860000000     0.0543809  
H133     H      0.103660000000     0.690630000000     0.014530000000     0.0501646  
H134     H      0.058950000000     0.225990000000     0.974340000000     0.048362   
H135     H      0.087550000000     0.290160000000     0.037070000000     0.0491113  
H136     H      0.949860000000     0.228400000000     0.972920000000     0.0481819  
H137     H      0.919300000000     0.290610000000     0.038910000000     0.0531879  
H138     H      0.055670000000     0.256060000000     0.089140000000     0.0465458  
H139     H      0.952330000000     0.255070000000     0.089990000000     0.0527195  
H140     H      0.087350000000     0.191930000000     0.028200000000     0.0493907  
H141     H      0.771990000000     0.980730000000     0.917340000000     0.0494185  
H142     H      0.716690000000     0.056490000000     0.934060000000     0.0591152  
H143     H      0.762270000000     0.914490000000     0.990210000000     0.0442323  
H144     H      0.702120000000     0.944580000000     0.058020000000     0.0552237  
H145     H      0.751720000000     0.071240000000     0.992810000000     0.0539523  
H146     H      0.742720000000     0.000470000000     0.071040000000     0.0529281  
H147     H      0.811650000000     0.037710000000     0.926920000000     0.0565274  
H148     H      0.253400000000     0.101000000000     0.974810000000     0.0462724  
H149     H      0.214480000000     0.061110000000     0.052520000000     0.0565028  
H150     H      0.251010000000     0.040510000000     0.901880000000     0.0430028  
H151     H      0.213810000000     0.954290000000     0.922470000000     0.0575819  
H152     H      0.263810000000     0.011210000000     0.053220000000     0.0538503  
H153     H      0.263870000000     0.943600000000     0.970680000000     0.0568755  
H154     H      0.301500000000     0.095010000000     0.025450000000     0.0558982  
H155     H      0.060890000000     0.036700000000     0.768000000000     0.0488663  
H156     H      0.995510000000     0.074590000000     0.710650000000     0.0583325  
H157     H      0.054150000000     0.931610000000     0.764250000000     0.0484     
H158     H      0.984080000000     0.907290000000     0.704090000000     0.0559136  
H159     H      0.943270000000     0.044930000000     0.746730000000     0.054191   
H160     H      0.935570000000     0.940930000000     0.742480000000     0.0551176  
H161     H      0.012890000000     0.070330000000     0.806120000000     0.0523455  
H162     H      0.969600000000     0.929630000000     0.246780000000     0.0496773  
H163     H      0.937430000000     0.001710000000     0.301650000000     0.0513418  
H164     H      0.070880000000     0.924530000000     0.241280000000     0.0432655  
H165     H      0.104200000000     0.980390000000     0.308080000000     0.0539396  
H166     H      0.975180000000     0.048290000000     0.264800000000     0.0505085  
H167     H      0.083310000000     0.038410000000     0.275100000000     0.0510985  
H168     H      0.936620000000     0.979600000000     0.209510000000     0.0519633  
N1       N      0.499030000000     0.507070000000     0.796050000000    -0.157821   
N2       N      0.491610000000     0.531310000000     0.690150000000    -0.15529    
N3       N      0.358330000000     0.493360000000     0.830160000000    -0.0950367  
N4       N      0.523260000000     0.518660000000     0.192070000000    -0.15616    
N5       N      0.506570000000     0.511410000000     0.300780000000    -0.153776   
N6       N      0.485170000000     0.656210000000     0.170580000000    -0.0962844  
N7       N      0.507890000000     0.814960000000     0.476180000000    -0.1573     
N8       N      0.506560000000     0.708380000000     0.500530000000    -0.156454   
N9       N      0.646870000000     0.846290000000     0.501200000000    -0.0966614  
N10      N      0.493820000000     0.208140000000     0.490490000000    -0.157914   
N11      N      0.501830000000     0.313200000000     0.517500000000    -0.156723   
N12      N      0.358060000000     0.180040000000     0.530870000000    -0.0970892  
N13      N      0.483290000000     0.819470000000     0.000670000000    -0.155613   
N14      N      0.507680000000     0.714620000000     0.978350000000    -0.155232   
N15      N      0.377060000000     0.841450000000     0.902920000000    -0.089069   
N16      N      0.529050000000     0.214170000000     0.992900000000    -0.15595    
N17      N      0.512600000000     0.322450000000     0.979940000000    -0.155457   
N18      N      0.622420000000     0.191050000000     0.883510000000    -0.087529   
N19      N      0.511450000000     0.010220000000     0.789660000000    -0.154597   
N20      N      0.513920000000     0.995760000000     0.680470000000    -0.155407   
N21      N      0.637330000000     0.081350000000     0.805410000000    -0.0884377  
N22      N      0.489330000000     0.022970000000     0.184250000000    -0.155881   
N23      N      0.473740000000     0.005100000000     0.291780000000    -0.155424   
N24      N      0.369020000000     0.100630000000     0.157090000000    -0.0947861  
N25      N      0.810860000000     0.485040000000     0.514140000000    -0.156857   
N26      N      0.700180000000     0.490560000000     0.511360000000    -0.156106   
N27      N      0.830070000000     0.342820000000     0.518520000000    -0.095215   
N28      N      0.206840000000     0.496080000000     0.523840000000    -0.157242   
N29      N      0.304720000000     0.501140000000     0.476560000000    -0.15707    
N30      N      0.185150000000     0.353080000000     0.529010000000    -0.0925435  
N31      N      0.816840000000     0.508940000000     0.001110000000    -0.155707   
N32      N      0.709860000000     0.533060000000     0.991370000000    -0.155767   
N33      N      0.844170000000     0.570030000000     0.127680000000    -0.0884845  
N34      N      0.211640000000     0.476460000000     0.008830000000    -0.15819    
N35      N      0.314680000000     0.513560000000     0.011330000000    -0.154874   
N36      N      0.176800000000     0.503590000000     0.871920000000    -0.0952303  
N37      N      0.009880000000     0.489900000000     0.711450000000    -0.155264   
N38      N      0.030200000000     0.486270000000     0.819160000000    -0.153833   
N39      N      0.021750000000     0.349410000000     0.680530000000    -0.0939048  
N40      N      0.005700000000     0.506500000000     0.210960000000    -0.156021   
N41      N      0.008600000000     0.496040000000     0.320100000000    -0.155925   
N42      N      0.866400000000     0.469760000000     0.188720000000    -0.0891132  
N43      N      0.007940000000     0.802280000000     0.488450000000    -0.155561   
N44      N      0.004670000000     0.694390000000     0.510880000000    -0.155473   
N45      N      0.151290000000     0.825370000000     0.501430000000    -0.0897706  
N46      N      0.968310000000     0.195560000000     0.498310000000    -0.156844   
N47      N      0.012660000000     0.295130000000     0.506560000000    -0.152984   
N48      N      0.935220000000     0.168250000000     0.635900000000    -0.0915855  
N49      N      0.801170000000     0.989360000000     0.495560000000    -0.156397   
N50      N      0.695460000000     0.018560000000     0.484170000000    -0.155054   
N51      N      0.821220000000     0.018210000000     0.634790000000    -0.0922293  
N52      N      0.192430000000     0.022200000000     0.542860000000    -0.156794   
N53      N      0.294240000000     0.010030000000     0.503960000000    -0.153565   
N54      N      0.165150000000     0.892340000000     0.598210000000    -0.0902321  
N55      N      0.019370000000     0.685320000000     0.015150000000    -0.15639    
N56      N      0.020170000000     0.794650000000     0.026590000000    -0.154865   
N57      N      0.881380000000     0.658140000000     0.048740000000    -0.0915682  
N58      N      0.003200000000     0.186770000000     0.020740000000    -0.156216   
N59      N      0.003190000000     0.295000000000     0.039140000000    -0.154998   
N60      N      0.863880000000     0.156500000000     0.040670000000    -0.0961214  
N61      N      0.812130000000     0.980700000000     0.989500000000    -0.15505    
N62      N      0.703830000000     0.004080000000     0.998720000000    -0.153998   
N63      N      0.824950000000     0.886950000000     0.100230000000    -0.0924811  
N64      N      0.308600000000     0.040460000000     0.961300000000    -0.156711   
N65      N      0.209990000000     0.003070000000     0.991000000000    -0.155439   
N66      N      0.333670000000     0.959550000000     0.843460000000    -0.0910282  
N67      N      0.010890000000     0.985860000000     0.809480000000    -0.154667   
N68      N      0.986960000000     0.991060000000     0.702240000000    -0.152853   
N69      N      0.983590000000     0.846410000000     0.834150000000    -0.0937905  
N70      N      0.020820000000     0.977130000000     0.202360000000    -0.156081   
N71      N      0.021680000000     0.997010000000     0.310250000000    -0.155083   
N72      N      0.163030000000     0.985820000000     0.173210000000    -0.0934094  
O1       O      0.011870000000     0.990230000000     0.006090000000    -0.371393   
O2       O      0.974780000000     0.110050000000     0.985020000000    -0.294925   
O3       O      0.052620000000     0.008270000000     0.124900000000    -0.292814   
O4       O      0.889150000000     0.959550000000     0.031360000000    -0.293366   
O5       O      0.039910000000     0.108500000000     0.042460000000    -0.299241   
O6       O      0.892050000000     0.014970000000     0.965970000000    -0.296668   
O7       O      0.978080000000     0.963750000000     0.125430000000    -0.297562   
O8       O      0.051410000000     0.869970000000     0.990100000000    -0.296753   
O9       O      0.132520000000     0.024450000000     0.029730000000    -0.301826   
O10      O      0.980050000000     0.872980000000     0.039320000000    -0.298977   
O11      O      0.131880000000     0.965930000000     0.966590000000    -0.299575   
O12      O      0.032020000000     0.949050000000     0.888190000000    -0.290914   
O13      O      0.991580000000     0.025950000000     0.886700000000    -0.296645   
O14      O      0.999250000000     0.999470000000     0.505680000000    -0.369961   
O15      O      0.000440000000     0.122730000000     0.538320000000    -0.296564   
O16      O      0.977280000000     0.016000000000     0.384170000000    -0.307303   
O17      O      0.125100000000     0.978430000000     0.504040000000    -0.291779   
O18      O      0.961710000000     0.114410000000     0.461620000000    -0.298047   
O19      O      0.108320000000     0.052020000000     0.547100000000    -0.295299   
O20      O      0.055660000000     0.979290000000     0.391580000000    -0.294776   
O21      O      0.968520000000     0.876450000000     0.519300000000    -0.296592   
O22      O      0.879830000000     0.014570000000     0.461910000000    -0.300538   
O23      O      0.044050000000     0.883580000000     0.477190000000    -0.290129   
O24      O      0.878990000000     0.967640000000     0.534410000000    -0.293017   
O25      O      0.972000000000     0.955330000000     0.621920000000    -0.293605   
O26      O      0.009230000000     0.033480000000     0.627220000000    -0.294588   
O27      O      0.013970000000     0.489440000000     0.015240000000    -0.374881   
O28      O      0.040540000000     0.367360000000     0.003260000000    -0.29992    
O29      O      0.974230000000     0.474080000000     0.133910000000    -0.291583   
O30      O      0.137320000000     0.506150000000     0.047810000000    -0.302267   
O31      O      0.967590000000     0.376190000000     0.049980000000    -0.296589   
O32      O      0.130390000000     0.454660000000     0.978800000000    -0.296612   
O33      O      0.045690000000     0.523060000000     0.133140000000    -0.300695   
O34      O      0.984810000000     0.607700000000     0.988930000000    -0.296846   
O35      O      0.889920000000     0.479870000000     0.042950000000    -0.294985   
O36      O      0.056880000000     0.607300000000     0.037530000000    -0.296374   
O37      O      0.898560000000     0.518090000000     0.966090000000    -0.298284   
O38      O      0.005910000000     0.526090000000     0.894820000000    -0.301269   
O39      O      0.034200000000     0.444300000000     0.897680000000    -0.297126   
O40      O      0.008950000000     0.494620000000     0.515300000000    -0.37055    
O41      O      0.988470000000     0.371710000000     0.544610000000    -0.295568   
O42      O      0.048260000000     0.476280000000     0.396870000000    -0.301424   
O43      O      0.887850000000     0.522450000000     0.490780000000    -0.306646   
O44      O      0.036400000000     0.374800000000     0.473020000000    -0.294657   
O45      O      0.889960000000     0.452040000000     0.540980000000    -0.291297   
O46      O      0.972590000000     0.519500000000     0.397850000000    -0.300025   
O47      O      0.038880000000     0.617520000000     0.540110000000    -0.301453   
O48      O      0.130350000000     0.460520000000     0.493800000000    -0.294144   
O49      O      0.971380000000     0.615270000000     0.486020000000    -0.299536   
O50      O      0.127330000000     0.529730000000     0.545670000000    -0.300648   
O51      O      0.034380000000     0.528780000000     0.634870000000    -0.295865   
O52      O      0.982350000000     0.459200000000     0.632620000000    -0.294447   
O53      O      0.505030000000     0.017040000000     0.987150000000    -0.370725   
O54      O      0.522920000000     0.896260000000     0.024750000000    -0.301352   
O55      O      0.385940000000     0.997620000000     0.945580000000    -0.294981   
O56      O      0.464580000000     0.051400000000     0.102860000000    -0.294902   
O57      O      0.463080000000     0.898450000000     0.962920000000    -0.29446    
O58      O      0.525210000000     0.990310000000     0.109110000000    -0.301634   
O59      O      0.385350000000     0.062030000000     0.002550000000    -0.298726   
O60      O      0.549440000000     0.133540000000     0.958440000000    -0.292081   
O61      O      0.480910000000     0.980850000000     0.868100000000    -0.298472   
O62      O      0.486020000000     0.139230000000     0.016360000000    -0.30112    
O63      O      0.540600000000     0.043220000000     0.867970000000    -0.291942   
O64      O      0.629170000000     0.036120000000     0.960850000000    -0.295103   
O65      O      0.621680000000     0.979630000000     0.025650000000    -0.299654   
O66      O      0.494420000000     0.011200000000     0.486290000000    -0.369878   
O67      O      0.529000000000     0.037170000000     0.603670000000    -0.303612   
O68      O      0.374920000000     0.974960000000     0.522150000000    -0.298623   
O69      O      0.458850000000     0.131060000000     0.463260000000    -0.298112   
O70      O      0.474590000000     0.969580000000     0.604500000000    -0.297658   
O71      O      0.529040000000     0.130220000000     0.514500000000    -0.301809   
O72      O      0.370050000000     0.043490000000     0.470040000000    -0.29683    
O73      O      0.516340000000     0.982780000000     0.366560000000    -0.302435   
O74      O      0.467350000000     0.888770000000     0.504930000000    -0.300501   
O75      O      0.451230000000     0.040220000000     0.370800000000    -0.298576   
O76      O      0.538640000000     0.896240000000     0.455880000000    -0.294968   
O77      O      0.618310000000     0.995100000000     0.444470000000    -0.297471   
O78      O      0.615710000000     0.038260000000     0.518650000000    -0.305179   
O79      O      0.511930000000     0.518260000000     0.993440000000    -0.371217   
O80      O      0.389220000000     0.540000000000     0.970770000000    -0.300917   
O81      O      0.484730000000     0.398220000000     0.017920000000    -0.301394   
O82      O      0.543210000000     0.493400000000     0.871810000000    -0.302831   
O83      O      0.396050000000     0.488900000000     0.040090000000    -0.298485   
O84      O      0.466700000000     0.533850000000     0.874580000000    -0.295547   
O85      O      0.547130000000     0.402050000000     0.957850000000    -0.299357   
O86      O      0.629880000000     0.552940000000     0.025980000000    -0.30139    
O87      O      0.500080000000     0.479180000000     0.115560000000    -0.299719   
O88      O      0.633970000000     0.499340000000     0.958390000000    -0.302342   
O89      O      0.536760000000     0.557450000000     0.112870000000    -0.294947   
O90      O      0.537690000000     0.639290000000     0.015270000000    -0.300343   
O91      O      0.475540000000     0.634130000000     0.955170000000    -0.298405   
O92      O      0.502480000000     0.509450000000     0.496260000000    -0.370754   
O93      O      0.382530000000     0.541890000000     0.460320000000    -0.301103   
O94      O      0.470110000000     0.393590000000     0.538150000000    -0.302348   
O95      O      0.530040000000     0.473140000000     0.378160000000    -0.295745   
O96      O      0.380820000000     0.473910000000     0.513520000000    -0.305142   
O97      O      0.481920000000     0.545860000000     0.378940000000    -0.298933   
O98      O      0.530430000000     0.386590000000     0.476390000000    -0.302531   
O99      O      0.623830000000     0.532880000000     0.528540000000    -0.306553   
O100     O      0.458420000000     0.497270000000     0.614520000000    -0.299054   
O101     O      0.622620000000     0.467130000000     0.472740000000    -0.299705   
O102     O      0.531460000000     0.544570000000     0.612120000000    -0.303647   
O103     O      0.543660000000     0.629570000000     0.519390000000    -0.303297   
O104     O      0.469970000000     0.631590000000     0.474100000000    -0.304003   
Zn1      Zn     0.969060000000     0.034680000000     0.962000000000     0.453055   
Zn2      Zn     0.057590000000     0.031820000000     0.050000000000     0.458263   
Zn3      Zn     0.965190000000     0.949200000000     0.049290000000     0.460264   
Zn4      Zn     0.055370000000     0.944460000000     0.963660000000     0.453134   
Zn5      Zn     0.028490000000     0.050940000000     0.552910000000     0.45532    
Zn6      Zn     0.955830000000     0.035160000000     0.455130000000     0.457792   
Zn7      Zn     0.055330000000     0.961690000000     0.470230000000     0.449705   
Zn8      Zn     0.956010000000     0.950670000000     0.544580000000     0.453839   
Zn9      Zn     0.052900000000     0.439680000000     0.974440000000     0.454389   
Zn10     Zn     0.962650000000     0.455140000000     0.058910000000     0.460229   
Zn11     Zn     0.062720000000     0.530230000000     0.057030000000     0.455455   
Zn12     Zn     0.976600000000     0.533370000000     0.967140000000     0.459517   
Zn13     Zn     0.968130000000     0.446100000000     0.557140000000     0.458845   
Zn14     Zn     0.054790000000     0.452600000000     0.471170000000     0.452491   
Zn15     Zn     0.962040000000     0.537340000000     0.473760000000     0.454966   
Zn16     Zn     0.050600000000     0.541740000000     0.558160000000     0.453043   
Zn17     Zn     0.543180000000     0.971960000000     0.035000000000     0.452604   
Zn18     Zn     0.460610000000     0.974170000000     0.942790000000     0.46322    
Zn19     Zn     0.460920000000     0.065570000000     0.026010000000     0.45755    
Zn20     Zn     0.554420000000     0.056210000000     0.944250000000     0.458108   
Zn21     Zn     0.539840000000     0.053660000000     0.529100000000     0.460989   
Zn22     Zn     0.453330000000     0.962580000000     0.528340000000     0.451752   
Zn23     Zn     0.445170000000     0.055350000000     0.448220000000     0.454216   
Zn24     Zn     0.541450000000     0.973320000000     0.439730000000     0.453346   
Zn25     Zn     0.462510000000     0.555910000000     0.949660000000     0.458042   
Zn26     Zn     0.474360000000     0.472480000000     0.041020000000     0.451388   
Zn27     Zn     0.558500000000     0.479600000000     0.947260000000     0.454565   
Zn28     Zn     0.552460000000     0.565500000000     0.036240000000     0.457054   
Zn29     Zn     0.460400000000     0.556290000000     0.453890000000     0.451766   
Zn30     Zn     0.454370000000     0.470240000000     0.540120000000     0.455125   
Zn31     Zn     0.545000000000     0.460830000000     0.455500000000     0.449514   
Zn32     Zn     0.549210000000     0.553010000000     0.536830000000     0.458591   


