data_structure

_audit_creation_method RASPA-1.0
_audit_creation_date 2023-5-19
_audit_author_name 'Poobodin Mano'

_cell_length_a    25.6948
_cell_length_b    25.7254
_cell_length_c    25.6484
_cell_angle_alpha 90
_cell_angle_beta  90
_cell_angle_gamma 90
_cell_volume      16953.8

_symmetry_cell_setting          triclinic
_symmetry_space_group_name_Hall 'P 1'
_symmetry_space_group_name_H-M  'P 1'
_symmetry_Int_Tables_number     1

_symmetry_equiv_pos_as_xyz 'x,y,z'

loop_
_atom_site_label
_atom_site_type_symbol
_atom_site_fract_x
_atom_site_fract_y
_atom_site_fract_z
_atom_site_charge
C1       C      0.013140000000     0.004610000000     0.150600000000     0.361854   
C2       C      0.156490000000     0.003420000000     0.015600000000     0.360787   
C3       C      0.004420000000     0.859520000000     0.018270000000     0.366517   
C4       C      0.028780000000     0.988830000000     0.863230000000     0.394356   
C5       C      0.010450000000     0.147720000000     0.998940000000     0.391521   
C6       C      0.871300000000     0.014540000000     0.999780000000     0.358303   
C7       C      0.993670000000     0.006380000000     0.363530000000     0.393114   
C8       C      0.142550000000     0.010320000000     0.496140000000     0.391796   
C9       C      0.996010000000     0.147550000000     0.514670000000     0.396182   
C10      C      0.007230000000     0.993840000000     0.651180000000     0.357903   
C11      C      0.000410000000     0.858200000000     0.499730000000     0.396088   
C12      C      0.856260000000     0.998850000000     0.509380000000     0.384753   
C13      C      0.988510000000     0.358720000000     0.000460000000     0.363501   
C14      C      0.012110000000     0.508740000000     0.146680000000     0.363073   
C15      C      0.145480000000     0.488770000000     0.003750000000     0.382958   
C16      C      0.006160000000     0.648200000000     0.998700000000     0.391811   
C17      C      0.860930000000     0.510570000000     0.011530000000     0.386534   
C18      C      0.003850000000     0.505600000000     0.857970000000     0.362793   
C19      C      0.993380000000     0.359400000000     0.495200000000     0.364271   
C20      C      0.989260000000     0.509240000000     0.358160000000     0.39142    
C21      C      0.847510000000     0.499360000000     0.501840000000     0.394438   
C22      C      0.991460000000     0.645080000000     0.507820000000     0.36539    
C23      C      0.132550000000     0.505150000000     0.501950000000     0.395144   
C24      C      0.986840000000     0.499250000000     0.645010000000     0.401914   
C25      C      0.367680000000     0.995680000000     0.993930000000     0.390016   
C26      C      0.513670000000     0.140490000000     0.006070000000     0.367223   
C27      C      0.499960000000     0.001650000000     0.143920000000     0.387048   
C28      C      0.657920000000     0.998610000000     0.001090000000     0.388714   
C29      C      0.510650000000     0.998380000000     0.856840000000     0.389498   
C30      C      0.520850000000     0.853540000000     0.006520000000     0.383379   
C31      C      0.355120000000     0.998670000000     0.501890000000     0.364238   
C32      C      0.503830000000     0.995960000000     0.357390000000     0.363317   
C33      C      0.501730000000     0.143140000000     0.502900000000     0.384486   
C34      C      0.642700000000     0.005130000000     0.512840000000     0.363295   
C35      C      0.503540000000     0.854240000000     0.493410000000     0.387849   
C36      C      0.490540000000     0.988990000000     0.645270000000     0.36383    
C37      C      0.358370000000     0.497420000000     0.990940000000     0.361527   
C38      C      0.492830000000     0.496150000000     0.141530000000     0.385562   
C39      C      0.512470000000     0.353980000000     0.998910000000     0.388799   
C40      C      0.647510000000     0.500950000000     0.002280000000     0.363187   
C41      C      0.503010000000     0.642110000000     0.992880000000     0.362281   
C42      C      0.507850000000     0.488090000000     0.853970000000     0.389221   
C43      C      0.345590000000     0.493800000000     0.495620000000     0.363503   
C44      C      0.490910000000     0.357470000000     0.494050000000     0.360139   
C45      C      0.495550000000     0.508880000000     0.354150000000     0.364894   
C46      C      0.633680000000     0.506330000000     0.500460000000     0.36411    
C47      C      0.486720000000     0.500920000000     0.643950000000     0.367993   
C48      C      0.482850000000     0.644120000000     0.504710000000     0.362782   
C49      C      0.514170000000     0.542570000000     0.726600000000    -0.0200573  
C50      C      0.450910000000     0.468080000000     0.727510000000    -0.107069   
C51      C      0.545490000000     0.516470000000     0.769840000000    -0.0083394  
C52      C      0.482260000000     0.442540000000     0.771230000000     0.323448   
C53      C      0.470480000000     0.550320000000     0.270240000000    -0.0205347  
C54      C      0.540690000000     0.482620000000     0.273080000000    -0.107233   
C55      C      0.447110000000     0.523710000000     0.222140000000    -0.00855572 
C56      C      0.515880000000     0.454780000000     0.226920000000     0.323129   
C57      C      0.443920000000     0.728570000000     0.478170000000    -0.020392   
C58      C      0.513960000000     0.725400000000     0.546230000000    -0.107385   
C59      C      0.472780000000     0.773130000000     0.451040000000    -0.00869931 
C60      C      0.543410000000     0.768680000000     0.518140000000     0.323614   
C61      C      0.449920000000     0.274180000000     0.520160000000    -0.0206683  
C62      C      0.518660000000     0.275750000000     0.450840000000    -0.105717   
C63      C      0.474940000000     0.225870000000     0.544120000000    -0.00836433 
C64      C      0.543150000000     0.226620000000     0.474080000000     0.321463   
C65      C      0.533710000000     0.724660000000     0.952820000000    -0.0201714  
C66      C      0.467170000000     0.725780000000     0.024690000000    -0.108014   
C67      C      0.561840000000     0.770540000000     0.978710000000    -0.00917465 
C68      C      0.496870000000     0.769960000000     0.051100000000     0.324446   
C69      C      0.468280000000     0.221870000000     0.982890000000    -0.0182905  
C70      C      0.541590000000     0.222850000000     0.047710000000    -0.104375   
C71      C      0.490060000000     0.270510000000     0.957280000000    -0.00936399 
C72      C      0.561750000000     0.273500000000     0.023560000000     0.321407   
C73      C      0.451090000000     0.016870000000     0.729180000000    -0.0197901  
C74      C      0.511930000000     0.941150000000     0.726420000000    -0.107248   
C75      C      0.481610000000     0.039960000000     0.774830000000    -0.00793493 
C76      C      0.543300000000     0.963970000000     0.771560000000     0.324135   
C77      C      0.547180000000     0.020690000000     0.274740000000    -0.0196059  
C78      C      0.475290000000     0.954400000000     0.275020000000    -0.106181   
C79      C      0.523210000000     0.045780000000     0.226460000000    -0.00827058 
C80      C      0.451990000000     0.979420000000     0.226190000000     0.322536   
C81      C      0.714460000000     0.513640000000     0.449540000000    -0.0199381  
C82      C      0.715380000000     0.523890000000     0.547180000000    -0.104766   
C83      C      0.767260000000     0.486260000000     0.452020000000    -0.00634563 
C84      C      0.764840000000     0.491080000000     0.550270000000     0.324314   
C85      C      0.263410000000     0.492610000000     0.445560000000    -0.019574   
C86      C      0.264120000000     0.472420000000     0.541550000000    -0.105836   
C87      C      0.212570000000     0.522800000000     0.452550000000    -0.006907   
C88      C      0.216430000000     0.507020000000     0.549490000000     0.32473    
C89      C      0.730000000000     0.464220000000     0.036270000000    -0.0229229  
C90      C      0.730410000000     0.527290000000     0.961150000000    -0.107996   
C91      C      0.778830000000     0.490440000000     0.058210000000    -0.00687306 
C92      C      0.777830000000     0.554090000000     0.984680000000     0.324679   
C93      C      0.275110000000     0.539280000000     0.015680000000    -0.0208417  
C94      C      0.275830000000     0.465320000000     0.951770000000    -0.106558   
C95      C      0.229280000000     0.514270000000     0.043930000000    -0.00797749 
C96      C      0.227820000000     0.441940000000     0.978750000000     0.322447   
C97      C      0.001500000000     0.555420000000     0.775610000000    -0.0192319  
C98      C      0.021090000000     0.459420000000     0.775610000000    -0.106315   
C99      C      0.969970000000     0.548560000000     0.725390000000    -0.0054821  
C100     C      0.984700000000     0.451860000000     0.729060000000     0.327048   
C101     C      0.018580000000     0.459700000000     0.228980000000    -0.0185414  
C102     C      0.024570000000     0.557220000000     0.229150000000    -0.101928   
C103     C      0.981790000000     0.461540000000     0.275540000000    -0.0072746  
C104     C      0.986260000000     0.559470000000     0.275210000000     0.320977   
C105     C      0.944420000000     0.728210000000     0.516410000000    -0.01915    
C106     C      0.042380000000     0.725210000000     0.520690000000    -0.103851   
C107     C      0.947670000000     0.779650000000     0.486710000000    -0.00655344 
C108     C      0.045460000000     0.773980000000     0.486720000000     0.324455   
C109     C      0.944760000000     0.277050000000     0.486900000000    -0.0183505  
C110     C      0.042680000000     0.277500000000     0.486060000000    -0.101758   
C111     C      0.945200000000     0.228420000000     0.521170000000    -0.00607512 
C112     C      0.043210000000     0.231340000000     0.523890000000     0.323621   
C113     C      0.725220000000     0.049140000000     0.489230000000    -0.0209211  
C114     C      0.723380000000     0.984180000000     0.561760000000    -0.106679   
C115     C      0.773620000000     0.023210000000     0.466710000000    -0.00730521 
C116     C      0.773000000000     0.958810000000     0.540590000000     0.3226     
C117     C      0.271440000000     0.960430000000     0.472660000000    -0.0207866  
C118     C      0.273420000000     0.027590000000     0.544000000000    -0.107611   
C119     C      0.223680000000     0.987240000000     0.449200000000    -0.00770387 
C120     C      0.226460000000     0.054420000000     0.519490000000     0.324837   
C121     C      0.051880000000     0.777610000000     0.033970000000    -0.0176215  
C122     C      0.954520000000     0.777700000000     0.027290000000    -0.100662   
C123     C      0.054940000000     0.730560000000     0.997960000000    -0.0076647  
C124     C      0.957020000000     0.731240000000     0.989750000000     0.320063   
C125     C      0.971340000000     0.275520000000     0.045220000000    -0.0192348  
C126     C      0.979290000000     0.278670000000     0.947770000000    -0.104968   
C127     C      0.009940000000     0.230280000000     0.047040000000    -0.00653248 
C128     C      0.013770000000     0.230100000000     0.948660000000     0.322478   
C129     C      0.789650000000     0.029870000000     0.048420000000    -0.0191042  
C130     C      0.789130000000     0.026710000000     0.950750000000    -0.102516   
C131     C      0.740110000000     0.996990000000     0.050220000000    -0.0081052  
C132     C      0.741060000000     0.991190000000     0.951930000000     0.321285   
C133     C      0.240980000000     0.048830000000     0.023880000000    -0.0200319  
C134     C      0.236460000000     0.951190000000     0.025220000000    -0.107504   
C135     C      0.286310000000     0.045860000000     0.985020000000    -0.00620878 
C136     C      0.283290000000     0.948200000000     0.988640000000     0.324995   
C137     C      0.012100000000     0.040790000000     0.734630000000    -0.0191853  
C138     C      0.999510000000     0.943450000000     0.733360000000    -0.104388   
C139     C      0.047860000000     0.035230000000     0.781740000000    -0.00625327 
C140     C      0.036550000000     0.938410000000     0.780480000000     0.324041   
C141     C      0.012860000000     0.953790000000     0.232270000000    -0.0196294  
C142     C      0.027530000000     0.050600000000     0.233810000000    -0.103837   
C143     C      0.979980000000     0.958200000000     0.281850000000    -0.00680397 
C144     C      0.990400000000     0.055530000000     0.280340000000     0.322746   
F1       F      0.449040000000     0.412990000000     0.801760000000    -0.421993   
F2       F      0.554410000000     0.428440000000     0.199890000000    -0.415051   
F3       F      0.572190000000     0.796380000000     0.554410000000    -0.419362   
F4       F      0.565230000000     0.198220000000     0.433850000000    -0.424134   
F5       F      0.462340000000     0.799250000000     0.080390000000    -0.407977   
F6       F      0.584320000000     0.303020000000     0.062700000000    -0.414537   
F7       F      0.564340000000     0.923220000000     0.799930000000    -0.411405   
F8       F      0.427280000000     0.941200000000     0.197270000000    -0.411639   
F9       F      0.793580000000     0.507090000000     0.593160000000    -0.422888   
F10      F      0.187980000000     0.487890000000     0.591260000000    -0.417298   
F11      F      0.806300000000     0.576770000000     0.944830000000    -0.408972   
F12      F      0.198010000000     0.416460000000     0.941700000000    -0.418475   
F13      F      0.002030000000     0.409770000000     0.700050000000    -0.413962   
F14      F      0.998640000000     0.601940000000     0.306130000000    -0.426176   
F15      F      0.090250000000     0.801190000000     0.499640000000    -0.424457   
F16      F      0.087510000000     0.201980000000     0.514530000000    -0.407841   
F17      F      0.801390000000     0.939920000000     0.582450000000    -0.416361   
F18      F      0.198620000000     0.079620000000     0.558240000000    -0.408775   
F19      F      0.912970000000     0.701010000000     0.997290000000    -0.411179   
F20      F      0.003030000000     0.199950000000     0.905170000000    -0.420384   
F21      F      0.711150000000     0.001410000000     0.908100000000    -0.413389   
F22      F      0.312090000000     0.904050000000     0.999940000000    -0.414036   
F23      F      0.021270000000     0.896460000000     0.810790000000    -0.421331   
F24      F      0.005640000000     0.097630000000     0.310490000000    -0.424026   
H1       H      0.419090000000     0.491310000000     0.745410000000     0.0979774  
H2       H      0.486260000000     0.570120000000     0.744910000000     0.0563946  
H3       H      0.565110000000     0.547020000000     0.793330000000     0.0596627  
H4       H      0.432750000000     0.437220000000     0.703230000000     0.102626   
H5       H      0.510920000000     0.415770000000     0.752920000000     0.00446375 
H6       H      0.541100000000     0.565590000000     0.701780000000     0.0615148  
H7       H      0.576260000000     0.492200000000     0.751460000000     0.0535851  
H8       H      0.570890000000     0.509710000000     0.257990000000     0.0937054  
H9       H      0.496850000000     0.581820000000     0.256680000000     0.0546229  
H10      H      0.428990000000     0.553870000000     0.196990000000     0.055817   
H11      H      0.560580000000     0.453430000000     0.298050000000     0.10246    
H12      H      0.487990000000     0.425550000000     0.242430000000     0.00634345 
H13      H      0.438590000000     0.568610000000     0.293060000000     0.0565596  
H14      H      0.415600000000     0.497240000000     0.235500000000     0.0482263  
H15      H      0.488790000000     0.743420000000     0.576540000000     0.0956336  
H16      H      0.414510000000     0.745700000000     0.504940000000     0.0556132  
H17      H      0.443810000000     0.798640000000     0.431570000000     0.0573799  
H18      H      0.542440000000     0.699930000000     0.566480000000     0.103377   
H19      H      0.570990000000     0.750300000000     0.490260000000     0.00503889 
H20      H      0.422860000000     0.705350000000     0.448340000000     0.0576919  
H21      H      0.497830000000     0.756090000000     0.420070000000     0.0500539  
H22      H      0.491810000000     0.263900000000     0.418970000000     0.0972322  
H23      H      0.418560000000     0.261380000000     0.493170000000     0.0575959  
H24      H      0.443840000000     0.202330000000     0.562820000000     0.058721   
H25      H      0.549990000000     0.299800000000     0.433180000000     0.100511   
H26      H      0.574930000000     0.238890000000     0.500820000000     0.00376224 
H27      H      0.431470000000     0.297150000000     0.551870000000     0.0614233  
H28      H      0.502180000000     0.238600000000     0.575300000000     0.0513477  
H29      H      0.436070000000     0.742960000000     0.999940000000     0.10379    
H30      H      0.507070000000     0.740440000000     0.922540000000     0.0617966  
H31      H      0.580510000000     0.794490000000     0.947880000000     0.0688616  
H32      H      0.448040000000     0.701810000000     0.055230000000     0.103679   
H33      H      0.525530000000     0.752290000000     0.078350000000     0.00556834 
H34      H      0.563000000000     0.699950000000     0.932770000000     0.0631489  
H35      H      0.593300000000     0.754660000000     0.003870000000     0.0546463  
H36      H      0.516670000000     0.232800000000     0.081740000000     0.0995347  
H37      H      0.438450000000     0.233800000000     0.011950000000     0.0561209  
H38      H      0.457320000000     0.292320000000     0.939320000000     0.0661298  
H39      H      0.575320000000     0.200080000000     0.062390000000     0.0997914  
H40      H      0.592590000000     0.263310000000     0.994910000000     0.00597357 
H41      H      0.448420000000     0.198270000000     0.952540000000     0.0599335  
H42      H      0.516780000000     0.258450000000     0.925370000000     0.0559792  
H43      H      0.482220000000     0.914280000000     0.742830000000     0.0987717  
H44      H      0.418680000000     0.993140000000     0.745300000000     0.0564884  
H45      H      0.454110000000     0.061880000000     0.800020000000     0.057916   
H46      H      0.538310000000     0.917870000000     0.701250000000     0.110966   
H47      H      0.575920000000     0.987000000000     0.754870000000     0.0143494  
H48      H      0.433710000000     0.049000000000     0.706050000000     0.0594586  
H49      H      0.510180000000     0.068290000000     0.758920000000     0.0534176  
H50      H      0.500720000000     0.921670000000     0.262630000000     0.0991743  
H51      H      0.577630000000     0.992780000000     0.261840000000     0.0553084  
H52      H      0.554760000000     0.064220000000     0.203340000000     0.0584876  
H53      H      0.443150000000     0.937780000000     0.298750000000     0.101274   
H54      H      0.422170000000     0.008090000000     0.238880000000     0.00507402 
H55      H      0.566500000000     0.051400000000     0.298290000000     0.0636796  
H56      H      0.496560000000     0.077260000000     0.239550000000     0.0532841  
H57      H      0.726340000000     0.565700000000     0.545930000000     0.100312   
H58      H      0.721520000000     0.555300000000     0.440400000000     0.0551028  
H59      H      0.790950000000     0.497720000000     0.417580000000     0.0530857  
H60      H      0.691720000000     0.517020000000     0.582880000000     0.0979842  
H61      H      0.753780000000     0.449620000000     0.555650000000     0.00617621 
H62      H      0.691300000000     0.497190000000     0.416820000000     0.056416   
H63      H      0.760290000000     0.443700000000     0.449010000000     0.0489717  
H64      H      0.250950000000     0.431580000000     0.536130000000     0.101761   
H65      H      0.253390000000     0.452530000000     0.432820000000     0.0548345  
H66      H      0.187710000000     0.517190000000     0.417490000000     0.0549892  
H67      H      0.288570000000     0.474190000000     0.577310000000     0.101676   
H68      H      0.229720000000     0.547080000000     0.558920000000     0.00638207 
H69      H      0.286600000000     0.510720000000     0.413780000000     0.0548742  
H70      H      0.222350000000     0.564860000000     0.454600000000     0.0508638  
H71      H      0.743990000000     0.498450000000     0.931850000000     0.0991064  
H72      H      0.742340000000     0.429850000000     0.013060000000     0.0613151  
H73      H      0.802350000000     0.460730000000     0.079060000000     0.0577003  
H74      H      0.706680000000     0.556910000000     0.940400000000     0.104469   
H75      H      0.763680000000     0.585730000000     0.010640000000     0.0119034  
H76      H      0.706130000000     0.449830000000     0.069410000000     0.0713495  
H77      H      0.766410000000     0.520010000000     0.087300000000     0.0535475  
H78      H      0.262290000000     0.489070000000     0.918180000000     0.101448   
H79      H      0.259600000000     0.567780000000     0.987010000000     0.0575893  
H80      H      0.206280000000     0.545360000000     0.063240000000     0.0556575  
H81      H      0.300050000000     0.433170000000     0.935980000000     0.106403   
H82      H      0.241700000000     0.412600000000     0.007400000000     0.00389427 
H83      H      0.298840000000     0.561050000000     0.044580000000     0.0585754  
H84      H      0.244930000000     0.488560000000     0.075090000000     0.0480002  
H85      H      0.061570000000     0.464250000000     0.761010000000     0.110699   
H86      H      0.041310000000     0.568310000000     0.764590000000     0.0622517  
H87      H      0.975210000000     0.583380000000     0.700210000000     0.0608784  
H88      H      0.019690000000     0.423850000000     0.800260000000     0.10746    
H89      H      0.944890000000     0.443310000000     0.743790000000     0.0122153  
H90      H      0.983910000000     0.586950000000     0.799460000000     0.0660077  
H91      H      0.928110000000     0.546860000000     0.736260000000     0.0626144  
H92      H      0.064950000000     0.557810000000     0.244760000000     0.0944023  
H93      H      0.058780000000     0.454150000000     0.244060000000     0.0534372  
H94      H      0.987970000000     0.426490000000     0.300160000000     0.0527287  
H95      H      0.019020000000     0.592190000000     0.204250000000     0.0953456  
H96      H      0.946280000000     0.564880000000     0.259510000000     0.00506277 
H97      H      0.009090000000     0.425400000000     0.204360000000     0.0547519  
H98      H      0.941240000000     0.459750000000     0.260500000000     0.0491232  
H99      H      0.044480000000     0.736920000000     0.562390000000     0.100851   
H100     H      0.938250000000     0.737260000000     0.558350000000     0.0621647  
H101     H      0.914360000000     0.804810000000     0.498170000000     0.0610262  
H102     H      0.076570000000     0.700140000000     0.511930000000     0.10072    
H103     H      0.047870000000     0.762000000000     0.445130000000     0.00895492 
H104     H      0.909800000000     0.706120000000     0.502790000000     0.0630706  
H105     H      0.943190000000     0.770990000000     0.444470000000     0.0534234  
H106     H      0.045530000000     0.262470000000     0.445490000000     0.102157   
H107     H      0.940570000000     0.264330000000     0.445680000000     0.0578311  
H108     H      0.911510000000     0.203310000000     0.510800000000     0.0560216  
H109     H      0.077220000000     0.302420000000     0.493830000000     0.10435    
H110     H      0.044930000000     0.246570000000     0.564440000000     0.0186585  
H111     H      0.910070000000     0.301040000000     0.496530000000     0.0587015  
H112     H      0.939660000000     0.240990000000     0.562280000000     0.0580305  
H113     H      0.734740000000     0.013190000000     0.591840000000     0.101345   
H114     H      0.737880000000     0.081260000000     0.515350000000     0.0584351  
H115     H      0.797060000000     0.053420000000     0.446510000000     0.0576876  
H116     H      0.699390000000     0.953950000000     0.581280000000     0.110144   
H117     H      0.761360000000     0.925210000000     0.515920000000     0.00815444 
H118     H      0.702460000000     0.066550000000     0.456780000000     0.0644296  
H119     H      0.761060000000     0.994440000000     0.436880000000     0.0500431  
H120     H      0.259260000000     0.000610000000     0.574770000000     0.0979583  
H121     H      0.257800000000     0.928220000000     0.498150000000     0.0613454  
H122     H      0.199330000000     0.957440000000     0.429490000000     0.0634947  
H123     H      0.298050000000     0.057490000000     0.563230000000     0.102913   
H124     H      0.241210000000     0.084420000000     0.491960000000     0.0122033  
H125     H      0.294620000000     0.943030000000     0.440500000000     0.0606808  
H126     H      0.237270000000     0.015080000000     0.418940000000     0.0545729  
H127     H      0.949010000000     0.762820000000     0.067630000000     0.0964177  
H128     H      0.051790000000     0.763240000000     0.074860000000     0.0549376  
H129     H      0.088790000000     0.706160000000     0.009390000000     0.0565725  
H130     H      0.920430000000     0.802340000000     0.017050000000     0.100388   
H131     H      0.956610000000     0.746280000000     0.949110000000     0.0167947  
H132     H      0.087350000000     0.801880000000     0.028920000000     0.059512   
H133     H      0.062360000000     0.744840000000     0.957720000000     0.0587844  
H134     H      0.938520000000     0.266000000000     0.940720000000     0.0989393  
H135     H      0.931160000000     0.259500000000     0.043800000000     0.0557422  
H136     H      0.000600000000     0.205450000000     0.081330000000     0.0525615  
H137     H      0.990810000000     0.303970000000     0.914550000000     0.102078   
H138     H      0.054920000000     0.243150000000     0.945770000000     0.0116972  
H139     H      0.975500000000     0.299010000000     0.081400000000     0.0548969  
H140     H      0.049860000000     0.246140000000     0.052320000000     0.0539483  
H141     H      0.775930000000     0.067690000000     0.946710000000     0.0998939  
H142     H      0.777980000000     0.071450000000     0.050320000000     0.0548317  
H143     H      0.716000000000     0.009550000000     0.083940000000     0.0544355  
H144     H      0.813210000000     0.016730000000     0.916120000000     0.103673   
H145     H      0.754340000000     0.950080000000     0.950230000000     0.0129101  
H146     H      0.813610000000     0.021650000000     0.083570000000     0.055446   
H147     H      0.751670000000     0.955960000000     0.057470000000     0.0516009  
H148     H      0.250960000000     0.947780000000     0.065940000000     0.103172   
H149     H      0.257170000000     0.051760000000     0.063980000000     0.0588535  
H150     H      0.312000000000     0.080140000000     0.991100000000     0.0541162  
H151     H      0.210330000000     0.917490000000     0.017980000000     0.099564   
H152     H      0.268160000000     0.944190000000     0.948210000000     0.00722215 
H153     H      0.217690000000     0.084400000000     0.015830000000     0.0568882  
H154     H      0.270270000000     0.047900000000     0.944790000000     0.0528798  
H155     H      0.958730000000     0.943960000000     0.747890000000     0.107112   
H156     H      0.972380000000     0.050150000000     0.749080000000     0.0662097  
H157     H      0.044640000000     0.070480000000     0.806690000000     0.0679087  
H158     H      0.004230000000     0.908800000000     0.707840000000     0.102336   
H159     H      0.076550000000     0.931110000000     0.765640000000     0.00819643 
H160     H      0.025300000000     0.074300000000     0.710660000000     0.06895    
H161     H      0.088610000000     0.033270000000     0.767250000000     0.0577894  
H162     H      0.068100000000     0.047650000000     0.248650000000     0.0979078  
H163     H      0.053100000000     0.943010000000     0.244010000000     0.0560575  
H164     H      0.986200000000     0.923140000000     0.306470000000     0.0536712  
H165     H      0.024480000000     0.086330000000     0.209540000000     0.0954756  
H166     H      0.950410000000     0.062750000000     0.265410000000     0.00273016 
H167     H      0.997590000000     0.921620000000     0.207670000000     0.0554834  
H168     H      0.938330000000     0.958330000000     0.270070000000     0.0476111  
N1       N      0.510980000000     0.482760000000     0.800910000000    -0.184714   
N2       N      0.484680000000     0.503100000000     0.697150000000    -0.145031   
N3       N      0.486930000000     0.492680000000     0.194580000000    -0.184145   
N4       N      0.500920000000     0.512860000000     0.301220000000    -0.145252   
N5       N      0.506200000000     0.801180000000     0.488590000000    -0.184722   
N6       N      0.480720000000     0.697120000000     0.508910000000    -0.144306   
N7       N      0.504450000000     0.196490000000     0.504510000000    -0.182891   
N8       N      0.488620000000     0.304340000000     0.490440000000    -0.143317   
N9       N      0.525420000000     0.800560000000     0.011440000000    -0.180604   
N10      N      0.502590000000     0.695380000000     0.991300000000    -0.142995   
N11      N      0.519510000000     0.301250000000     0.995730000000    -0.181881   
N12      N      0.510090000000     0.193380000000     0.009950000000    -0.145131   
N13      N      0.510240000000     0.998990000000     0.803350000000    -0.182112   
N14      N      0.485250000000     0.983080000000     0.698010000000    -0.143456   
N15      N      0.492940000000     0.007080000000     0.196660000000    -0.183181   
N16      N      0.507120000000     0.992230000000     0.304260000000    -0.14382    
N17      N      0.794550000000     0.496530000000     0.501460000000    -0.185556   
N18      N      0.686530000000     0.510660000000     0.499580000000    -0.14445    
N19      N      0.185550000000     0.508240000000     0.501120000000    -0.184847   
N20      N      0.292670000000     0.489200000000     0.494780000000    -0.14429    
N21      N      0.808070000000     0.516600000000     0.016300000000    -0.18235    
N22      N      0.700780000000     0.499860000000     0.001910000000    -0.141774   
N23      N      0.198500000000     0.482610000000     0.007160000000    -0.18319    
N24      N      0.305150000000     0.499310000000     0.987630000000    -0.142855   
N25      N      0.983460000000     0.499980000000     0.698070000000    -0.182393   
N26      N      0.005950000000     0.506320000000     0.804780000000    -0.140293   
N27      N      0.988170000000     0.510340000000     0.304930000000    -0.185115   
N28      N      0.016690000000     0.508850000000     0.199690000000    -0.145368   
N29      N      0.998270000000     0.805470000000     0.494540000000    -0.185171   
N30      N      0.992840000000     0.698000000000     0.511440000000    -0.141948   
N31      N      0.995170000000     0.200570000000     0.517440000000    -0.182186   
N32      N      0.993710000000     0.306440000000     0.491810000000    -0.141979   
N33      N      0.802940000000     0.995780000000     0.507920000000    -0.183372   
N34      N      0.695160000000     0.011190000000     0.519810000000    -0.142223   
N35      N      0.195240000000     0.016170000000     0.489870000000    -0.181131   
N36      N      0.301930000000     0.997290000000     0.504420000000    -0.143832   
N37      N      0.005590000000     0.701370000000     0.998040000000    -0.182236   
N38      N      0.003510000000     0.806890000000     0.024800000000    -0.143826   
N39      N      0.007760000000     0.200740000000     0.997860000000    -0.184456   
N40      N      0.981090000000     0.306260000000     0.998020000000    -0.143421   
N41      N      0.711220000000     0.999140000000     0.000560000000    -0.182196   
N42      N      0.818500000000     0.021320000000     0.999580000000    -0.142447   
N43      N      0.314510000000     0.996320000000     0.991490000000    -0.183498   
N44      N      0.209400000000     0.001420000000     0.019830000000    -0.142758   
N45      N      0.036350000000     0.987150000000     0.810540000000    -0.183274   
N46      N      0.009460000000     0.992070000000     0.704490000000    -0.13908    
N47      N      0.990790000000     0.006740000000     0.310380000000    -0.185204   
N48      N      0.015100000000     0.003460000000     0.203810000000    -0.144459   
O1       O      0.013810000000     0.003320000000     0.006390000000    -0.370466   
O2       O      0.985510000000     0.971390000000     0.126170000000    -0.296701   
O3       O      0.131400000000     0.041220000000     0.035990000000    -0.290718   
O4       O      0.044530000000     0.880600000000     0.998420000000    -0.29167    
O5       O      0.039040000000     0.039000000000     0.126000000000    -0.295206   
O6       O      0.965990000000     0.887150000000     0.033260000000    -0.290571   
O7       O      0.132850000000     0.966520000000     0.992440000000    -0.293806   
O8       O      0.002470000000     0.026220000000     0.882310000000    -0.289541   
O9       O      0.034010000000     0.125490000000     0.036440000000    -0.303406   
O10      O      0.049710000000     0.954650000000     0.892760000000    -0.258886   
O11      O      0.989060000000     0.121030000000     0.962990000000    -0.257544   
O12      O      0.898390000000     0.030050000000     0.960890000000    -0.283462   
O13      O      0.892900000000     0.993400000000     0.039270000000    -0.294569   
O14      O      0.999610000000     0.002710000000     0.507270000000    -0.373111   
O15      O      0.972540000000     0.042980000000     0.389630000000    -0.260986   
O16      O      0.117180000000     0.981020000000     0.465090000000    -0.290771   
O17      O      0.031730000000     0.122390000000     0.537990000000    -0.250588   
O18      O      0.016970000000     0.968990000000     0.386340000000    -0.297613   
O19      O      0.961040000000     0.123790000000     0.488770000000    -0.292482   
O20      O      0.119020000000     0.034940000000     0.532180000000    -0.242474   
O21      O      0.980550000000     0.959970000000     0.626350000000    -0.278391   
O22      O      0.036740000000     0.883580000000     0.477580000000    -0.263774   
O23      O      0.030780000000     0.030330000000     0.626970000000    -0.282485   
O24      O      0.965010000000     0.881580000000     0.525280000000    -0.294496   
O25      O      0.881900000000     0.971740000000     0.542100000000    -0.252359   
O26      O      0.879990000000     0.028000000000     0.476910000000    -0.302452   
O27      O      0.003230000000     0.503060000000     0.002520000000    -0.371853   
O28      O      0.015700000000     0.381210000000     0.965680000000    -0.287193   
O29      O      0.986270000000     0.472650000000     0.124700000000    -0.298385   
O30      O      0.123440000000     0.524360000000     0.030520000000    -0.302832   
O31      O      0.968020000000     0.384660000000     0.037430000000    -0.296905   
O32      O      0.118480000000     0.458940000000     0.974510000000    -0.25003    
O33      O      0.034540000000     0.543940000000     0.119790000000    -0.291917   
O34      O      0.969560000000     0.623150000000     0.976810000000    -0.252309   
O35      O      0.885840000000     0.482690000000     0.044430000000    -0.297999   
O36      O      0.043410000000     0.624100000000     0.020930000000    -0.299796   
O37      O      0.885030000000     0.534140000000     0.975170000000    -0.244815   
O38      O      0.976160000000     0.538860000000     0.882360000000    -0.282796   
O39      O      0.029650000000     0.471270000000     0.882620000000    -0.287448   
O40      O      0.989790000000     0.502380000000     0.501350000000    -0.378739   
O41      O      0.955910000000     0.382100000000     0.518500000000    -0.28735    
O42      O      0.011230000000     0.471200000000     0.381250000000    -0.302029   
O43      O      0.871000000000     0.524500000000     0.465970000000    -0.298431   
O44      O      0.030220000000     0.385530000000     0.474520000000    -0.288187   
O45      O      0.872720000000     0.475830000000     0.537520000000    -0.265261   
O46      O      0.967460000000     0.545520000000     0.384100000000    -0.262269   
O47      O      0.028690000000     0.618670000000     0.527110000000    -0.292728   
O48      O      0.108500000000     0.486940000000     0.462480000000    -0.297674   
O49      O      0.952830000000     0.622620000000     0.486060000000    -0.28478    
O50      O      0.107690000000     0.521580000000     0.541690000000    -0.258013   
O51      O      0.007710000000     0.537480000000     0.621380000000    -0.291655   
O52      O      0.968260000000     0.460850000000     0.619650000000    -0.251781   
O53      O      0.512780000000     0.997090000000     0.000880000000    -0.373748   
O54      O      0.391170000000     0.959100000000     0.017810000000    -0.242925   
O55      O      0.483330000000     0.116540000000     0.975180000000    -0.301286   
O56      O      0.536050000000     0.027150000000     0.121460000000    -0.303655   
O57      O      0.393300000000     0.032420000000     0.972880000000    -0.302765   
O58      O      0.469900000000     0.972350000000     0.117440000000    -0.244307   
O59      O      0.545500000000     0.115440000000     0.034800000000    -0.29343    
O60      O      0.633220000000     0.974870000000     0.965130000000    -0.252535   
O61      O      0.482530000000     0.030550000000     0.882110000000    -0.299906   
O62      O      0.633440000000     0.021170000000     0.038010000000    -0.297766   
O63      O      0.539740000000     0.966390000000     0.881050000000    -0.244361   
O64      O      0.549510000000     0.878090000000     0.974090000000    -0.286316   
O65      O      0.488130000000     0.878080000000     0.034510000000    -0.239505   
O66      O      0.499250000000     0.998420000000     0.501680000000    -0.371329   
O67      O      0.380240000000     0.029840000000     0.531190000000    -0.296064   
O68      O      0.470160000000     0.968940000000     0.381720000000    -0.297377   
O69      O      0.529810000000     0.117860000000     0.470790000000    -0.254969   
O70      O      0.379180000000     0.967860000000     0.471330000000    -0.296941   
O71      O      0.472010000000     0.118930000000     0.534550000000    -0.300276   
O72      O      0.535280000000     0.025290000000     0.382220000000    -0.290164   
O73      O      0.617490000000     0.973530000000     0.541570000000    -0.286814   
O74      O      0.469920000000     0.879470000000     0.467190000000    -0.303893   
O75      O      0.619250000000     0.032080000000     0.478420000000    -0.291368   
O76      O      0.534700000000     0.878160000000     0.523660000000    -0.253733   
O77      O      0.520000000000     0.958190000000     0.619980000000    -0.288899   
O78      O      0.465550000000     0.024800000000     0.621770000000    -0.296273   
O79      O      0.503040000000     0.497790000000     0.997510000000    -0.372027   
O80      O      0.383640000000     0.463550000000     0.964920000000    -0.287138   
O81      O      0.464590000000     0.527570000000     0.115480000000    -0.302448   
O82      O      0.541650000000     0.381080000000     0.028230000000    -0.249689   
O83      O      0.382330000000     0.530050000000     0.019630000000    -0.296984   
O84      O      0.477870000000     0.375880000000     0.970900000000    -0.294508   
O85      O      0.525820000000     0.467350000000     0.118380000000    -0.25011    
O86      O      0.623150000000     0.527680000000     0.968270000000    -0.29409    
O87      O      0.473300000000     0.618220000000     0.024740000000    -0.295023   
O88      O      0.622640000000     0.473760000000     0.035410000000    -0.283573   
O89      O      0.532690000000     0.616770000000     0.962180000000    -0.294939   
O90      O      0.536390000000     0.521400000000     0.877130000000    -0.301891   
O91      O      0.477080000000     0.459340000000     0.879940000000    -0.256287   
O92      O      0.489340000000     0.501170000000     0.498560000000    -0.369327   
O93      O      0.368680000000     0.521430000000     0.461390000000    -0.296192   
O94      O      0.460560000000     0.381130000000     0.525450000000    -0.295989   
O95      O      0.523410000000     0.476410000000     0.379040000000    -0.298749   
O96      O      0.371280000000     0.469840000000     0.530590000000    -0.296237   
O97      O      0.463640000000     0.538190000000     0.378270000000    -0.298338   
O98      O      0.522260000000     0.382980000000     0.465050000000    -0.293004   
O99      O      0.607890000000     0.531240000000     0.534690000000    -0.296576   
O100     O      0.459100000000     0.468010000000     0.619290000000    -0.296745   
O101     O      0.610700000000     0.478710000000     0.466250000000    -0.296477   
O102     O      0.515760000000     0.532460000000     0.619350000000    -0.301107   
O103     O      0.516280000000     0.619140000000     0.531460000000    -0.297702   
O104     O      0.451330000000     0.620150000000     0.474600000000    -0.295473   
Zn1      Zn     0.965440000000     0.964740000000     0.049820000000     0.453136   
Zn2      Zn     0.053670000000     0.051200000000     0.049670000000     0.457205   
Zn3      Zn     0.058550000000     0.952640000000     0.972620000000     0.46343    
Zn4      Zn     0.976680000000     0.043560000000     0.954140000000     0.464341   
Zn5      Zn     0.954890000000     0.048460000000     0.466700000000     0.463757   
Zn6      Zn     0.041620000000     0.960060000000     0.460830000000     0.46598    
Zn7      Zn     0.043880000000     0.045990000000     0.550520000000     0.477439   
Zn8      Zn     0.958250000000     0.955670000000     0.549940000000     0.465978   
Zn9      Zn     0.041150000000     0.454920000000     0.957890000000     0.467015   
Zn10     Zn     0.962020000000     0.461770000000     0.051020000000     0.456312   
Zn11     Zn     0.049700000000     0.548260000000     0.041920000000     0.455954   
Zn12     Zn     0.959900000000     0.547730000000     0.959610000000     0.475474   
Zn13     Zn     0.948230000000     0.456290000000     0.543370000000     0.472472   
Zn14     Zn     0.033970000000     0.462270000000     0.456160000000     0.463499   
Zn15     Zn     0.946230000000     0.547990000000     0.460370000000     0.462924   
Zn16     Zn     0.032460000000     0.543370000000     0.546860000000     0.472811   
Zn17     Zn     0.466490000000     0.952670000000     0.041150000000     0.479548   
Zn18     Zn     0.469560000000     0.042550000000     0.958730000000     0.465221   
Zn19     Zn     0.556760000000     0.038410000000     0.047110000000     0.459078   
Zn20     Zn     0.557380000000     0.954920000000     0.956400000000     0.473128   
Zn21     Zn     0.456030000000     0.042600000000     0.545820000000     0.457796   
Zn22     Zn     0.455230000000     0.955480000000     0.457150000000     0.460167   
Zn23     Zn     0.544190000000     0.041850000000     0.458700000000     0.465428   
Zn24     Zn     0.541860000000     0.953170000000     0.545110000000     0.468366   
Zn25     Zn     0.460730000000     0.450550000000     0.955600000000     0.468507   
Zn26     Zn     0.457490000000     0.542500000000     0.038450000000     0.456222   
Zn27     Zn     0.546910000000     0.457000000000     0.043970000000     0.477501   
Zn28     Zn     0.547280000000     0.540140000000     0.952550000000     0.458638   
Zn29     Zn     0.444110000000     0.544070000000     0.454400000000     0.452169   
Zn30     Zn     0.447010000000     0.456300000000     0.542630000000     0.459608   
Zn31     Zn     0.535190000000     0.460130000000     0.454230000000     0.457112   
Zn32     Zn     0.531480000000     0.544160000000     0.544280000000     0.463153   


