data_structure

_audit_creation_method RASPA-1.0
_audit_creation_date 2023-5-19
_audit_author_name 'Poobodin Mano'

_cell_length_a    25.6763
_cell_length_b    25.743
_cell_length_c    25.6814
_cell_angle_alpha 90
_cell_angle_beta  90
_cell_angle_gamma 90
_cell_volume      16975

_symmetry_cell_setting          triclinic
_symmetry_space_group_name_Hall 'P 1'
_symmetry_space_group_name_H-M  'P 1'
_symmetry_Int_Tables_number     1

_symmetry_equiv_pos_as_xyz 'x,y,z'

loop_
_atom_site_label
_atom_site_type_symbol
_atom_site_fract_x
_atom_site_fract_y
_atom_site_fract_z
_atom_site_charge
C1       C      0.008550000000     0.987360000000     0.856520000000     0.376871   
C2       C      0.014240000000     0.851040000000     0.996960000000     0.359403   
C3       C      0.144500000000     0.011020000000     0.013310000000     0.379996   
C4       C      0.000560000000     0.995580000000     0.144310000000     0.379358   
C5       C      0.855550000000     0.986900000000     0.998350000000     0.373065   
C6       C      0.989570000000     0.136300000000     0.991300000000     0.372242   
C7       C      0.156420000000     0.009570000000     0.494820000000     0.38053    
C8       C      0.010710000000     0.021260000000     0.354500000000     0.363152   
C9       C      0.008070000000     0.868430000000     0.492930000000     0.369428   
C10      C      0.866510000000     0.015810000000     0.496430000000     0.365882   
C11      C      0.012220000000     0.153420000000     0.509310000000     0.362958   
C12      C      0.015350000000     0.004300000000     0.642590000000     0.361701   
C13      C      0.003540000000     0.347740000000     0.003480000000     0.361729   
C14      C      0.985970000000     0.495570000000     0.146640000000     0.361486   
C15      C      0.141430000000     0.486270000000     0.004460000000     0.372585   
C16      C      0.007690000000     0.637290000000     0.008900000000     0.375859   
C17      C      0.855160000000     0.492480000000     0.997740000000     0.360796   
C18      C      0.993090000000     0.498960000000     0.859800000000     0.380025   
C19      C      0.992950000000     0.363180000000     0.496780000000     0.38015    
C20      C      0.998470000000     0.507640000000     0.358980000000     0.377819   
C21      C      0.853620000000     0.510020000000     0.504830000000     0.377228   
C22      C      0.992610000000     0.655070000000     0.504210000000     0.363862   
C23      C      0.141050000000     0.508200000000     0.505780000000     0.372598   
C24      C      0.001690000000     0.504320000000     0.645690000000     0.359811   
C25      C      0.353740000000     0.994700000000     0.006040000000     0.363309   
C26      C      0.497380000000     0.134260000000     0.005330000000     0.360827   
C27      C      0.500580000000     0.987180000000     0.150210000000     0.361653   
C28      C      0.639990000000     0.981150000000     0.007780000000     0.35676    
C29      C      0.497210000000     0.992290000000     0.859610000000     0.378229   
C30      C      0.482610000000     0.847310000000     0.994900000000     0.362466   
C31      C      0.367940000000     0.004500000000     0.514420000000     0.36245    
C32      C      0.493630000000     0.008180000000     0.361480000000     0.371696   
C33      C      0.522680000000     0.148100000000     0.506340000000     0.374141   
C34      C      0.654620000000     0.998750000000     0.496260000000     0.375999   
C35      C      0.518040000000     0.860340000000     0.503720000000     0.372383   
C36      C      0.514250000000     0.008850000000     0.647950000000     0.365441   
C37      C      0.357490000000     0.490900000000     0.004760000000     0.356874   
C38      C      0.502620000000     0.349000000000     0.004130000000     0.375525   
C39      C      0.506250000000     0.478820000000     0.854830000000     0.37396    
C40      C      0.643120000000     0.495670000000     0.009890000000     0.374514   
C41      C      0.505310000000     0.502490000000     0.143930000000     0.381158   
C42      C      0.491410000000     0.634440000000     0.984570000000     0.375178   
C43      C      0.355310000000     0.505700000000     0.495130000000     0.359685   
C44      C      0.500830000000     0.359900000000     0.498410000000     0.362533   
C45      C      0.491910000000     0.508870000000     0.356160000000     0.361534   
C46      C      0.642660000000     0.507910000000     0.485880000000     0.361501   
C47      C      0.503380000000     0.498620000000     0.642390000000     0.355802   
C48      C      0.499240000000     0.649480000000     0.513640000000     0.362965   
C49      C      0.551380000000     0.508370000000     0.725610000000    -0.0179172  
C50      C      0.454020000000     0.495160000000     0.724860000000    -0.0698524  
C51      C      0.555600000000     0.471520000000     0.772550000000    -0.00991646 
C52      C      0.458980000000     0.459050000000     0.771930000000     0.166194   
C53      C      0.482340000000     0.457340000000     0.275950000000    -0.0159924  
C54      C      0.477520000000     0.554840000000     0.272940000000    -0.0662649  
C55      C      0.516090000000     0.457260000000     0.227180000000    -0.00998518 
C56      C      0.513450000000     0.555250000000     0.224980000000     0.164944   
C57      C      0.460880000000     0.734450000000     0.489230000000    -0.0168354  
C58      C      0.529750000000     0.729850000000     0.558150000000    -0.0648147  
C59      C      0.490760000000     0.778010000000     0.462260000000    -0.0111126  
C60      C      0.558740000000     0.775200000000     0.532070000000     0.16542    
C61      C      0.470430000000     0.274890000000     0.532270000000    -0.0168255  
C62      C      0.530600000000     0.279110000000     0.455070000000    -0.0681805  
C63      C      0.502380000000     0.229510000000     0.553570000000    -0.0115111  
C64      C      0.561970000000     0.233130000000     0.476800000000     0.163943   
C65      C      0.455380000000     0.763490000000     0.031920000000    -0.0155335  
C66      C      0.471820000000     0.771670000000     0.936190000000    -0.0663731  
C67      C      0.488800000000     0.714920000000     0.033820000000    -0.00940808 
C68      C      0.496630000000     0.716940000000     0.935350000000     0.162353   
C69      C      0.478890000000     0.216540000000     0.960350000000    -0.0166537  
C70      C      0.493730000000     0.214390000000     0.057360000000    -0.0676639  
C71      C      0.510020000000     0.266880000000     0.956940000000    -0.00867925 
C72      C      0.518750000000     0.268630000000     0.054420000000     0.163706   
C73      C      0.555030000000     0.982480000000     0.731350000000    -0.0170343  
C74      C      0.484310000000     0.049470000000     0.730050000000    -0.0675214  
C75      C      0.528130000000     0.955010000000     0.776590000000    -0.0111357  
C76      C      0.456920000000     0.021950000000     0.775250000000     0.164516   
C77      C      0.472630000000     0.950590000000     0.235560000000    -0.0176478  
C78      C      0.541120000000     0.020220000000     0.231260000000    -0.0684398  
C79      C      0.447220000000     0.979060000000     0.281670000000    -0.0122562  
C80      C      0.513070000000     0.049910000000     0.274570000000     0.1645     
C81      C      0.726170000000     0.463630000000     0.469160000000    -0.0166177  
C82      C      0.722550000000     0.560840000000     0.479430000000    -0.0674327  
C83      C      0.771580000000     0.461360000000     0.507790000000    -0.00876466 
C84      C      0.770920000000     0.559110000000     0.514450000000     0.165105   
C85      C      0.272710000000     0.552250000000     0.479370000000    -0.0167986  
C86      C      0.273940000000     0.454960000000     0.489560000000    -0.0678337  
C87      C      0.224020000000     0.555030000000     0.513680000000    -0.00944141 
C88      C      0.222430000000     0.457610000000     0.519880000000     0.163803   
C89      C      0.772510000000     0.539020000000     0.981610000000    -0.0171196  
C90      C      0.773280000000     0.442040000000     0.995060000000    -0.0683986  
C91      C      0.725680000000     0.543480000000     0.018300000000    -0.00996302 
C92      C      0.724900000000     0.446680000000     0.029640000000     0.165268   
C93      C      0.276520000000     0.493650000000     0.056890000000    -0.0176513  
C94      C      0.274840000000     0.510330000000     0.960380000000    -0.0684222  
C95      C      0.222130000000     0.468920000000     0.052990000000    -0.0104478  
C96      C      0.224530000000     0.478880000000     0.955410000000     0.166613   
C97      C      0.006790000000     0.451120000000     0.725330000000    -0.0172938  
C98      C      0.019760000000     0.547950000000     0.729120000000    -0.0671939  
C99      C      0.978170000000     0.453040000000     0.777570000000    -0.0093439  
C100     C      0.986170000000     0.550730000000     0.778450000000     0.166492   
C101     C      0.974790000000     0.551110000000     0.224030000000    -0.0158692  
C102     C      0.967110000000     0.454030000000     0.230910000000    -0.0657177  
C103     C      0.004970000000     0.552620000000     0.275410000000    -0.0102798  
C104     C      0.002770000000     0.454300000000     0.278870000000     0.164893   
C105     C      0.952050000000     0.738180000000     0.475890000000    -0.0173484  
C106     C      0.018420000000     0.737130000000     0.547210000000    -0.0681658  
C107     C      0.978200000000     0.786350000000     0.452290000000    -0.0119008  
C108     C      0.046440000000     0.783240000000     0.522280000000     0.164049   
C109     C      0.981870000000     0.235080000000     0.551240000000    -0.0169479  
C110     C      0.050350000000     0.237320000000     0.481590000000    -0.068618   
C111     C      0.953200000000     0.279700000000     0.523970000000    -0.0115742  
C112     C      0.020000000000     0.279680000000     0.453080000000     0.165133   
C113     C      0.783010000000     0.032040000000     0.540610000000    -0.0159131  
C114     C      0.786320000000     0.019390000000     0.443480000000    -0.067352   
C115     C      0.737240000000     0.994400000000     0.543770000000    -0.00985462 
C116     C      0.736960000000     0.985880000000     0.446080000000     0.164329   
C117     C      0.285150000000     0.955810000000     0.521250000000    -0.0164332  
C118     C      0.286360000000     0.053150000000     0.528300000000    -0.0670434  
C119     C      0.237050000000     0.958930000000     0.486370000000    -0.00992794 
C120     C      0.240870000000     0.056870000000     0.489790000000     0.165474   
C121     C      0.989660000000     0.767450000000     0.956180000000    -0.0165302  
C122     C      0.063390000000     0.770870000000     0.019540000000    -0.0676903  
C123     C      0.967300000000     0.720500000000     0.984330000000    -0.0104216  
C124     C      0.043880000000     0.720560000000     0.045710000000     0.16354    
C125     C      0.042070000000     0.264740000000     0.972080000000    -0.0174537  
C126     C      0.977350000000     0.264920000000     0.045280000000    -0.0680635  
C127     C      0.013080000000     0.218880000000     0.947200000000    -0.0121675  
C128     C      0.947410000000     0.220660000000     0.018960000000     0.164434   
C129     C      0.723380000000     0.007460000000     0.048730000000    -0.0163966  
C130     C      0.721120000000     0.933180000000     0.986140000000    -0.0670129  
C131     C      0.772370000000     0.028350000000     0.022450000000    -0.0121853  
C132     C      0.771920000000     0.952370000000     0.960660000000     0.16299    
C133     C      0.271860000000     0.025460000000     0.965150000000    -0.0178656  
C134     C      0.269760000000     0.962920000000     0.040980000000    -0.0693973  
C135     C      0.226640000000     0.055580000000     0.989600000000    -0.0106746  
C136     C      0.226310000000     0.995410000000     0.065340000000     0.16555    
C137     C      0.064900000000     0.003760000000     0.724940000000    -0.0168016  
C138     C      0.967140000000     0.013850000000     0.724490000000    -0.0667289  
C139     C      0.060960000000     0.975170000000     0.777310000000    -0.0103008  
C140     C      0.963090000000     0.978020000000     0.771740000000     0.166038   
C141     C      0.957310000000     0.031160000000     0.275470000000    -0.0152495  
C142     C      0.054970000000     0.032810000000     0.270180000000    -0.0654112  
C143     C      0.954800000000     0.995600000000     0.227960000000    -0.00966182 
C144     C      0.053440000000     0.993410000000     0.225260000000     0.163963   
H1       H      0.563130000000     0.431550000000     0.757910000000     0.0452441  
H2       H      0.586890000000     0.503970000000     0.701200000000     0.0495655  
H3       H      0.463680000000     0.418670000000     0.756760000000     0.00732309 
H4       H      0.420960000000     0.482010000000     0.700200000000     0.0655345  
H5       H      0.589260000000     0.483590000000     0.797000000000     0.0477974  
H6       H      0.550130000000     0.549010000000     0.740240000000     0.0500246  
H7       H      0.444370000000     0.534790000000     0.739190000000     0.0710608  
H8       H      0.386820000000     0.440140000000     0.785020000000     0.14313    
H9       H      0.557520000000     0.455090000000     0.239610000000     0.0456431  
H10      H      0.493170000000     0.423790000000     0.300990000000     0.0501257  
H11      H      0.554550000000     0.559280000000     0.238540000000     0.00938755 
H12      H      0.484770000000     0.590450000000     0.296420000000     0.061793   
H13      H      0.507720000000     0.421690000000     0.204030000000     0.0513321  
H14      H      0.441180000000     0.451650000000     0.263730000000     0.0488122  
H15      H      0.436300000000     0.555470000000     0.259590000000     0.06882    
H16      H      0.516910000000     0.628720000000     0.207880000000     0.144802   
H17      H      0.517450000000     0.760260000000     0.433140000000     0.043912   
H18      H      0.439020000000     0.711980000000     0.459450000000     0.0509787  
H19      H      0.587710000000     0.757320000000     0.505000000000     0.00480147 
H20      H      0.558550000000     0.703850000000     0.577250000000     0.0705787  
H21      H      0.462570000000     0.802620000000     0.440620000000     0.0500617  
H22      H      0.431930000000     0.752290000000     0.516040000000     0.0472766  
H23      H      0.504000000000     0.745920000000     0.589050000000     0.0689906  
H24      H      0.618550000000     0.814880000000     0.556160000000     0.154678   
H25      H      0.532810000000     0.245640000000     0.579820000000     0.0434852  
H26      H      0.454820000000     0.297710000000     0.565550000000     0.0499171  
H27      H      0.594070000000     0.249140000000     0.501340000000     0.00743044 
H28      H      0.557510000000     0.304930000000     0.433190000000     0.0659588  
H29      H      0.476610000000     0.204650000000     0.577780000000     0.0505726  
H30      H      0.436800000000     0.258900000000     0.510190000000     0.048292   
H31      H      0.501570000000     0.263800000000     0.426800000000     0.0682022  
H32      H      0.614910000000     0.223170000000     0.423610000000     0.145288   
H33      H      0.529840000000     0.726160000000     0.042040000000     0.0497827  
H34      H      0.458460000000     0.783950000000     0.069960000000     0.0496886  
H35      H      0.539700000000     0.722070000000     0.932550000000     0.00780471 
H36      H      0.491140000000     0.796470000000     0.906450000000     0.0625052  
H37      H      0.474870000000     0.690060000000     0.066480000000     0.0506958  
H38      H      0.414060000000     0.752060000000     0.025680000000     0.0507594  
H39      H      0.430310000000     0.767930000000     0.924370000000     0.0677285  
H40      H      0.498630000000     0.702890000000     0.860990000000     0.144024   
H41      H      0.551770000000     0.257300000000     0.950490000000     0.0488462  
H42      H      0.485290000000     0.193800000000     0.924050000000     0.0511155  
H43      H      0.561880000000     0.263180000000     0.053940000000     0.00870662 
H44      H      0.513340000000     0.191460000000     0.088400000000     0.062216   
H45      H      0.495900000000     0.289800000000     0.922990000000     0.0464755  
H46      H      0.436740000000     0.226140000000     0.963110000000     0.0514429  
H47      H      0.452340000000     0.219040000000     0.069300000000     0.0678914  
H48      H      0.527070000000     0.285550000000     0.127770000000     0.142894   
H49      H      0.502730000000     0.923980000000     0.760340000000     0.0456735  
H50      H      0.576130000000     0.953140000000     0.707640000000     0.0529317  
H51      H      0.428480000000     0.993760000000     0.758430000000     0.00797706 
H52      H      0.454500000000     0.068680000000     0.705250000000     0.0655002  
H53      H      0.558370000000     0.935790000000     0.800810000000     0.0505023  
H54      H      0.584380000000     0.009780000000     0.747630000000     0.0471682  
H55      H      0.509950000000     0.080320000000     0.746280000000     0.0669135  
H56      H      0.396650000000     0.066090000000     0.787430000000     0.144179   
H57      H      0.415550000000     0.004090000000     0.266080000000     0.0438943  
H58      H      0.441760000000     0.930660000000     0.212730000000     0.050134   
H59      H      0.483080000000     0.075230000000     0.255910000000     0.00823963 
H60      H      0.560860000000     0.048530000000     0.205230000000     0.0667319  
H61      H      0.428940000000     0.949860000000     0.307770000000     0.0496689  
H62      H      0.498970000000     0.920200000000     0.251470000000     0.0470927  
H63      H      0.571700000000     0.995380000000     0.249200000000     0.0692352  
H64      H      0.554480000000     0.112900000000     0.280510000000     0.145539   
H65      H      0.755700000000     0.455580000000     0.547660000000     0.0465673  
H66      H      0.702550000000     0.427580000000     0.472880000000     0.0476275  
H67      H      0.757220000000     0.558880000000     0.555690000000     0.00902459 
H68      H      0.696760000000     0.593310000000     0.491760000000     0.062027   
H69      H      0.796860000000     0.427590000000     0.498040000000     0.0455521  
H70      H      0.742190000000     0.465540000000     0.428970000000     0.050045   
H71      H      0.735510000000     0.569200000000     0.438960000000     0.0682115  
H72      H      0.785280000000     0.632550000000     0.524790000000     0.143349   
H73      H      0.236270000000     0.560250000000     0.554890000000     0.0466778  
H74      H      0.296400000000     0.587870000000     0.485790000000     0.048407   
H75      H      0.232240000000     0.457670000000     0.562220000000     0.00809048 
H76      H      0.297820000000     0.422240000000     0.504740000000     0.063432   
H77      H      0.200510000000     0.589430000000     0.501960000000     0.0453049  
H78      H      0.260440000000     0.551350000000     0.437840000000     0.0497602  
H79      H      0.264850000000     0.446080000000     0.448160000000     0.0690934  
H80      H      0.206190000000     0.384390000000     0.529170000000     0.144152   
H81      H      0.740190000000     0.550340000000     0.058530000000     0.046384   
H82      H      0.796700000000     0.574660000000     0.985500000000     0.0499378  
H83      H      0.738590000000     0.450120000000     0.070750000000     0.00855945 
H84      H      0.797740000000     0.409160000000     0.008840000000     0.063923   
H85      H      0.701760000000     0.577510000000     0.006380000000     0.047842   
H86      H      0.758010000000     0.536810000000     0.940870000000     0.049126   
H87      H      0.760320000000     0.432630000000     0.954820000000     0.0684681  
H88      H      0.710260000000     0.374390000000     0.046050000000     0.143488   
H89      H      0.227120000000     0.426030000000     0.053910000000     0.0441288  
H90      H      0.299190000000     0.473400000000     0.087690000000     0.0519471  
H91      H      0.234780000000     0.437250000000     0.948840000000     0.00993899 
H92      H      0.297840000000     0.505280000000     0.923990000000     0.0696484  
H93      H      0.199170000000     0.479600000000     0.088120000000     0.0497475  
H94      H      0.271550000000     0.534590000000     0.069770000000     0.0494333  
H95      H      0.264870000000     0.552220000000     0.964240000000     0.0744589  
H96      H      0.210030000000     0.481490000000     0.881120000000     0.147945   
H97      H      0.935640000000     0.452070000000     0.769460000000     0.0438208  
H98      H      0.990010000000     0.419560000000     0.700990000000     0.0498145  
H99      H      0.944730000000     0.556770000000     0.766800000000     0.00954596 
H100     H      0.014280000000     0.584320000000     0.706340000000     0.0637385  
H101     H      0.987600000000     0.417490000000     0.800340000000     0.0472856  
H102     H      0.048100000000     0.440730000000     0.733150000000     0.048016   
H103     H      0.061460000000     0.545240000000     0.740580000000     0.0718271  
H104     H      0.987140000000     0.624370000000     0.795190000000     0.146234   
H105     H      0.047060000000     0.556710000000     0.266030000000     0.0453026  
H106     H      0.988660000000     0.582870000000     0.198130000000     0.0493589  
H107     H      0.043950000000     0.449790000000     0.265690000000     0.0119508  
H108     H      0.973120000000     0.417290000000     0.208850000000     0.0620342  
H109     H      0.993410000000     0.587770000000     0.297840000000     0.0469358  
H110     H      0.933140000000     0.558950000000     0.232900000000     0.0471662  
H111     H      0.925830000000     0.455650000000     0.243990000000     0.0695532  
H112     H      0.006060000000     0.381280000000     0.297930000000     0.147661   
H113     H      0.004870000000     0.773250000000     0.420800000000     0.0442031  
H114     H      0.934620000000     0.714790000000     0.443950000000     0.0531763  
H115     H      0.076110000000     0.767570000000     0.494630000000     0.00741877 
H116     H      0.047500000000     0.712750000000     0.567980000000     0.0665723  
H117     H      0.947570000000     0.810800000000     0.433990000000     0.0502636  
H118     H      0.919760000000     0.751440000000     0.501510000000     0.047926   
H119     H      0.990470000000     0.752180000000     0.576690000000     0.0679176  
H120     H      0.105140000000     0.794330000000     0.568930000000     0.144476   
H121     H      0.922840000000     0.262600000000     0.498280000000     0.044919   
H122     H      0.952860000000     0.209900000000     0.571100000000     0.0512559  
H123     H      0.991710000000     0.260240000000     0.426400000000     0.00940511 
H124     H      0.072170000000     0.213670000000     0.452690000000     0.0694207  
H125     H      0.933000000000     0.303450000000     0.553930000000     0.0505974  
H126     H      0.007640000000     0.252020000000     0.581610000000     0.0474548  
H127     H      0.079380000000     0.256210000000     0.507600000000     0.070038   
H128     H      0.061700000000     0.291160000000     0.390890000000     0.14503    
H129     H      0.752520000000     0.954430000000     0.549870000000     0.0457064  
H130     H      0.806450000000     0.028750000000     0.576910000000     0.0481768  
H131     H      0.749520000000     0.944400000000     0.447190000000     0.00761161 
H132     H      0.811660000000     0.005430000000     0.411260000000     0.062759   
H133     H      0.712910000000     0.005070000000     0.578010000000     0.0476622  
H134     H      0.767670000000     0.072350000000     0.537760000000     0.0494165  
H135     H      0.774580000000     0.059870000000     0.433890000000     0.068436   
H136     H      0.722340000000     0.974260000000     0.372710000000     0.143566   
H137     H      0.250280000000     0.955960000000     0.445240000000     0.0435161  
H138     H      0.308910000000     0.921480000000     0.509990000000     0.0491942  
H139     H      0.256960000000     0.060020000000     0.449540000000     0.00902226 
H140     H      0.311520000000     0.088030000000     0.523640000000     0.0640616  
H141     H      0.211490000000     0.924910000000     0.494100000000     0.0484145  
H142     H      0.271700000000     0.949520000000     0.561920000000     0.0474201  
H143     H      0.270590000000     0.053060000000     0.568650000000     0.0682776  
H144     H      0.228690000000     0.131280000000     0.485410000000     0.145792   
H145     H      0.939190000000     0.734430000000     0.014190000000     0.0464267  
H146     H      0.957090000000     0.789750000000     0.938490000000     0.0540665  
H147     H      0.020510000000     0.731840000000     0.080560000000     0.00794217 
H148     H      0.082790000000     0.795440000000     0.049380000000     0.0674449  
H149     H      0.945060000000     0.697210000000     0.955470000000     0.0533028  
H150     H      0.015170000000     0.753470000000     0.924100000000     0.0502525  
H151     H      0.093340000000     0.760250000000     0.990110000000     0.0698125  
H152     H      0.099610000000     0.705990000000     0.094880000000     0.145476   
H153     H      0.984980000000     0.234740000000     0.918320000000     0.0451048  
H154     H      0.059500000000     0.288900000000     0.940730000000     0.0513504  
H155     H      0.918210000000     0.238430000000     0.992110000000     0.00825978 
H156     H      0.949500000000     0.289330000000     0.067630000000     0.066259   
H157     H      0.041640000000     0.194740000000     0.925500000000     0.0514811  
H158     H      0.074440000000     0.248950000000     0.996090000000     0.0482159  
H159     H      0.005280000000     0.247760000000     0.073580000000     0.0680212  
H160     H      0.889070000000     0.210150000000     0.066100000000     0.143719   
H161     H      0.760410000000     0.057260000000     0.992570000000     0.0469005  
H162     H      0.700880000000     0.040730000000     0.064680000000     0.0512723  
H163     H      0.761230000000     0.976180000000     0.925940000000     0.0094229  
H164     H      0.697070000000     0.913580000000     0.955980000000     0.0648852  
H165     H      0.795620000000     0.049360000000     0.052270000000     0.0527666  
H166     H      0.735400000000     0.982590000000     0.082050000000     0.0472449  
H167     H      0.731200000000     0.903590000000     0.016070000000     0.0672722  
H168     H      0.786640000000     0.897350000000     0.910860000000     0.145377   
H169     H      0.243150000000     0.087400000000     0.013820000000     0.0449774  
H170     H      0.297110000000     0.053260000000     0.943730000000     0.0532805  
H171     H      0.245040000000     0.026710000000     0.088930000000     0.00839811 
H172     H      0.293750000000     0.945690000000     0.072600000000     0.0661927  
H173     H      0.203140000000     0.073670000000     0.958110000000     0.0503024  
H174     H      0.255500000000     0.997830000000     0.936180000000     0.0482109  
H175     H      0.251890000000     0.930540000000     0.018540000000     0.0695789  
H176     H      0.214570000000     0.960530000000     0.131480000000     0.142026   
H177     H      0.064840000000     0.932860000000     0.769470000000     0.0443572  
H178     H      0.097420000000     0.986930000000     0.701830000000     0.0508669  
H179     H      0.960790000000     0.936960000000     0.757940000000     0.00994898 
H180     H      0.932040000000     0.008070000000     0.699700000000     0.0638178  
H181     H      0.094440000000     0.986440000000     0.802370000000     0.0474482  
H182     H      0.075230000000     0.044920000000     0.733080000000     0.0472274  
H183     H      0.967540000000     0.054930000000     0.737950000000     0.0706365  
H184     H      0.888410000000     0.972950000000     0.783220000000     0.145952   
H185     H      0.949520000000     0.955080000000     0.242030000000     0.0448577  
H186     H      0.924110000000     0.022510000000     0.301930000000     0.0478087  
H187     H      0.056100000000     0.953450000000     0.241910000000     0.0102612  
H188     H      0.091000000000     0.026700000000     0.293490000000     0.0613874  
H189     H      0.919920000000     0.005590000000     0.204270000000     0.0476902  
H190     H      0.952580000000     0.071850000000     0.261710000000     0.0479811  
H191     H      0.055860000000     0.072760000000     0.253680000000     0.0696928  
H192     H      0.126640000000     0.985510000000     0.207510000000     0.146259   
N1       N      0.506450000000     0.471900000000     0.801970000000    -0.171883   
N2       N      0.503430000000     0.497900000000     0.695710000000    -0.148318   
N3       N      0.508680000000     0.505300000000     0.196900000000    -0.172782   
N4       N      0.486430000000     0.507350000000     0.303390000000    -0.150617   
N5       N      0.521920000000     0.807110000000     0.500830000000    -0.174214   
N6       N      0.497200000000     0.702300000000     0.519770000000    -0.151128   
N7       N      0.528130000000     0.201080000000     0.510660000000    -0.171324   
N8       N      0.502350000000     0.306690000000     0.496920000000    -0.150496   
N9       N      0.486430000000     0.687240000000     0.983650000000    -0.170491   
N10      N      0.473090000000     0.795540000000     0.988330000000    -0.150186   
N11      N      0.504590000000     0.296050000000     0.005780000000    -0.171151   
N12      N      0.494600000000     0.187200000000     0.006880000000    -0.149592   
N13      N      0.495490000000     0.991910000000     0.806190000000    -0.172771   
N14      N      0.516620000000     0.012250000000     0.700990000000    -0.151165   
N15      N      0.485680000000     0.012220000000     0.308640000000    -0.170712   
N16      N      0.503720000000     0.986710000000     0.203500000000    -0.150405   
N17      N      0.800580000000     0.510600000000     0.505970000000    -0.172565   
N18      N      0.695260000000     0.510550000000     0.479420000000    -0.15026    
N19      N      0.194180000000     0.506530000000     0.508840000000    -0.171188   
N20      N      0.302230000000     0.504720000000     0.491280000000    -0.149475   
N21      N      0.695840000000     0.494730000000     0.017030000000    -0.172277   
N22      N      0.802150000000     0.491490000000     0.993580000000    -0.149944   
N23      N      0.194660000000     0.482620000000     0.004390000000    -0.170398   
N24      N      0.304270000000     0.493910000000     0.006680000000    -0.147571   
N25      N      0.989810000000     0.500940000000     0.806770000000    -0.17244    
N26      N      0.005770000000     0.501720000000     0.698620000000    -0.149468   
N27      N      0.997980000000     0.504710000000     0.305990000000    -0.171696   
N28      N      0.978450000000     0.499840000000     0.198970000000    -0.150353   
N29      N      0.008940000000     0.814970000000     0.491630000000    -0.170855   
N30      N      0.989330000000     0.708100000000     0.507420000000    -0.150181   
N31      N      0.989790000000     0.310180000000     0.491720000000    -0.172214   
N32      N      0.014200000000     0.206350000000     0.513550000000    -0.150138   
N33      N      0.707680000000     0.996170000000     0.494650000000    -0.172303   
N34      N      0.813700000000     0.020140000000     0.493890000000    -0.151475   
N35      N      0.209530000000     0.008790000000     0.492940000000    -0.173536   
N36      N      0.315040000000     0.004540000000     0.519380000000    -0.150788   
N37      N      0.009010000000     0.690710000000     0.010530000000    -0.170385   
N38      N      0.020810000000     0.798390000000     0.992740000000    -0.149111   
N39      N      0.983960000000     0.189300000000     0.987060000000    -0.170538   
N40      N      0.006820000000     0.294660000000     0.006040000000    -0.150452   
N41      N      0.801930000000     0.986360000000     0.996570000000    -0.169752   
N42      N      0.693010000000     0.975920000000     0.011870000000    -0.149283   
N43      N      0.196160000000     0.020430000000     0.023010000000    -0.172587   
N44      N      0.300510000000     0.995530000000     0.005120000000    -0.150416   
N45      N      0.010590000000     0.983900000000     0.803480000000    -0.17266    
N46      N      0.015500000000     0.003150000000     0.695760000000    -0.149587   
N47      N      0.003200000000     0.997910000000     0.197280000000    -0.172169   
N48      N      0.007940000000     0.026710000000     0.301880000000    -0.151301   
O1       O      0.001250000000     0.993970000000     0.000300000000    -0.370417   
O2       O      0.043210000000     0.013260000000     0.880850000000    -0.301395   
O3       O      0.980460000000     0.873870000000     0.968530000000    -0.298409   
O4       O      0.120870000000     0.975710000000     0.038340000000    -0.28344    
O5       O      0.971970000000     0.964490000000     0.881000000000    -0.286401   
O6       O      0.120060000000     0.038330000000     0.979950000000    -0.304509   
O7       O      0.042670000000     0.876960000000     0.028300000000    -0.299188   
O8       O      0.966710000000     0.022680000000     0.120120000000    -0.298477   
O9       O      0.882030000000     0.956700000000     0.969320000000    -0.280027   
O10      O      0.032850000000     0.967240000000     0.119770000000    -0.287857   
O11      O      0.878820000000     0.018930000000     0.028180000000    -0.301481   
O12      O      0.964190000000     0.111250000000     0.025840000000    -0.278996   
O13      O      0.020240000000     0.112310000000     0.960400000000    -0.300255   
O14      O      0.011330000000     0.011210000000     0.498180000000    -0.3706     
O15      O      0.132190000000     0.973180000000     0.517980000000    -0.302993   
O16      O      0.045610000000     0.045680000000     0.379980000000    -0.300213   
O17      O      0.978700000000     0.893790000000     0.461650000000    -0.300301   
O18      O      0.131680000000     0.046440000000     0.473080000000    -0.289782   
O19      O      0.037610000000     0.892550000000     0.524550000000    -0.283891   
O20      O      0.977350000000     0.992880000000     0.377510000000    -0.30383    
O21      O      0.891210000000     0.039600000000     0.532120000000    -0.304455   
O22      O      0.040580000000     0.130760000000     0.475540000000    -0.300946   
O23      O      0.890550000000     0.988930000000     0.462550000000    -0.304029   
O24      O      0.982670000000     0.127220000000     0.539420000000    -0.300465   
O25      O      0.979250000000     0.028940000000     0.619350000000    -0.303843   
O26      O      0.051030000000     0.981240000000     0.616820000000    -0.294771   
O27      O      0.998420000000     0.492530000000     0.003730000000    -0.369977   
O28      O      0.031850000000     0.372990000000     0.971490000000    -0.30024    
O29      O      0.961230000000     0.460950000000     0.121130000000    -0.300146   
O30      O      0.118170000000     0.507070000000     0.043270000000    -0.295176   
O31      O      0.972200000000     0.371650000000     0.033450000000    -0.304229   
O32      O      0.115700000000     0.468100000000     0.965950000000    -0.283326   
O33      O      0.017180000000     0.526670000000     0.123950000000    -0.299832   
O34      O      0.972880000000     0.614870000000     0.981800000000    -0.304362   
O35      O      0.878670000000     0.456160000000     0.022080000000    -0.301304   
O36      O      0.039970000000     0.610180000000     0.035060000000    -0.279088   
O37      O      0.880520000000     0.529520000000     0.976710000000    -0.301936   
O38      O      0.970870000000     0.533920000000     0.886970000000    -0.288363   
O39      O      0.017790000000     0.461800000000     0.881420000000    -0.300116   
O40      O      0.996760000000     0.509060000000     0.502340000000    -0.367769   
O41      O      0.963000000000     0.386840000000     0.528230000000    -0.305511   
O42      O      0.027220000000     0.476440000000     0.384640000000    -0.287163   
O43      O      0.877720000000     0.541510000000     0.475000000000    -0.282855   
O44      O      0.025190000000     0.388820000000     0.469610000000    -0.279202   
O45      O      0.878090000000     0.477320000000     0.533020000000    -0.301797   
O46      O      0.969500000000     0.540820000000     0.381940000000    -0.299096   
O47      O      0.023070000000     0.630450000000     0.534530000000    -0.303513   
O48      O      0.116860000000     0.473880000000     0.479380000000    -0.280324   
O49      O      0.964390000000     0.630490000000     0.471820000000    -0.29848    
O50      O      0.116350000000     0.543950000000     0.529800000000    -0.302294   
O51      O      0.026370000000     0.539700000000     0.621180000000    -0.299276   
O52      O      0.974080000000     0.470910000000     0.621450000000    -0.298585   
O53      O      0.496780000000     0.989890000000     0.004840000000    -0.369451   
O54      O      0.377460000000     0.964650000000     0.037620000000    -0.302215   
O55      O      0.471290000000     0.109800000000     0.971060000000    -0.300286   
O56      O      0.529750000000     0.017710000000     0.124310000000    -0.303413   
O57      O      0.379120000000     0.023330000000     0.974600000000    -0.301937   
O58      O      0.468820000000     0.957170000000     0.126760000000    -0.301242   
O59      O      0.524510000000     0.109860000000     0.039020000000    -0.300355   
O60      O      0.614170000000     0.949740000000     0.979130000000    -0.299094   
O61      O      0.465120000000     0.019690000000     0.885220000000    -0.287608   
O62      O      0.616740000000     0.016610000000     0.033750000000    -0.299326   
O63      O      0.530110000000     0.964010000000     0.883540000000    -0.306392   
O64      O      0.511540000000     0.871270000000     0.962570000000    -0.301059   
O65      O      0.461270000000     0.871280000000     0.032740000000    -0.3015     
O66      O      0.511430000000     0.004300000000     0.504210000000    -0.372562   
O67      O      0.394010000000     0.042410000000     0.532750000000    -0.30383    
O68      O      0.466280000000     0.976600000000     0.388400000000    -0.301698   
O69      O      0.550760000000     0.122040000000     0.474680000000    -0.276746   
O70      O      0.390640000000     0.966660000000     0.491790000000    -0.3018     
O71      O      0.489700000000     0.124960000000     0.535060000000    -0.307533   
O72      O      0.528240000000     0.035980000000     0.383510000000    -0.276791   
O73      O      0.630940000000     0.979370000000     0.535200000000    -0.306996   
O74      O      0.485720000000     0.884040000000     0.474450000000    -0.305246   
O75      O      0.629530000000     0.021230000000     0.459800000000    -0.278335   
O76      O      0.546690000000     0.885990000000     0.535010000000    -0.289843   
O77      O      0.544090000000     0.977400000000     0.624070000000    -0.303089   
O78      O      0.483290000000     0.038210000000     0.622750000000    -0.304665   
O79      O      0.500420000000     0.491990000000     0.999510000000    -0.371711   
O80      O      0.381460000000     0.513600000000     0.967680000000    -0.294774   
O81      O      0.476010000000     0.373690000000     0.037990000000    -0.281487   
O82      O      0.544970000000     0.463490000000     0.881940000000    -0.300254   
O83      O      0.382590000000     0.466360000000     0.040120000000    -0.292892   
O84      O      0.467170000000     0.500090000000     0.876630000000    -0.281679   
O85      O      0.528620000000     0.373010000000     0.969350000000    -0.299201   
O86      O      0.616980000000     0.534470000000     0.026430000000    -0.302302   
O87      O      0.480910000000     0.464880000000     0.122980000000    -0.300136   
O88      O      0.620740000000     0.457890000000     0.986890000000    -0.283285   
O89      O      0.527350000000     0.536880000000     0.116080000000    -0.288633   
O90      O      0.517290000000     0.614000000000     0.021410000000    -0.306605   
O91      O      0.468670000000     0.606230000000     0.950520000000    -0.279202   
O92      O      0.499320000000     0.505100000000     0.499320000000    -0.368545   
O93      O      0.380710000000     0.541700000000     0.472370000000    -0.29999    
O94      O      0.471360000000     0.383420000000     0.530790000000    -0.299836   
O95      O      0.516740000000     0.472590000000     0.379010000000    -0.302759   
O96      O      0.378850000000     0.470280000000     0.520720000000    -0.299394   
O97      O      0.470890000000     0.545660000000     0.381980000000    -0.300407   
O98      O      0.528300000000     0.385650000000     0.466430000000    -0.305686   
O99      O      0.620270000000     0.539540000000     0.516790000000    -0.301913   
O100     O      0.465230000000     0.478400000000     0.617590000000    -0.29852    
O101     O      0.616670000000     0.473800000000     0.460960000000    -0.301299   
O102     O      0.540900000000     0.520500000000     0.618110000000    -0.297771   
O103     O      0.529200000000     0.622210000000     0.542240000000    -0.300545   
O104     O      0.470900000000     0.627870000000     0.479270000000    -0.304564   
O105     O      0.413640000000     0.461760000000     0.802540000000    -0.264481   
O106     O      0.499920000000     0.597450000000     0.192910000000    -0.267796   
O107     O      0.584480000000     0.803960000000     0.570850000000    -0.270405   
O108     O      0.583040000000     0.204600000000     0.435150000000    -0.260587   
O109     O      0.478800000000     0.689610000000     0.891410000000    -0.263502   
O110     O      0.504630000000     0.297590000000     0.098680000000    -0.264608   
O111     O      0.430350000000     0.059270000000     0.805130000000    -0.263402   
O112     O      0.549000000000     0.081050000000     0.301620000000    -0.257565   
O113     O      0.801880000000     0.603350000000     0.505740000000    -0.266855   
O114     O      0.191970000000     0.413670000000     0.508370000000    -0.261875   
O115     O      0.693850000000     0.401970000000     0.024550000000    -0.264643   
O116     O      0.195810000000     0.498210000000     0.912940000000    -0.263842   
O117     O      0.003430000000     0.592390000000     0.809430000000    -0.266017   
O118     O      0.988780000000     0.412900000000     0.311810000000    -0.265557   
O119     O      0.071390000000     0.811770000000     0.561760000000    -0.262657   
O120     O      0.054630000000     0.310240000000     0.423750000000    -0.257259   
O121     O      0.706310000000     0.994440000000     0.401510000000    -0.262268   
O122     O      0.211010000000     0.101110000000     0.501790000000    -0.267108   
O123     O      0.087290000000     0.691150000000     0.061370000000    -0.261445   
O124     O      0.921520000000     0.191180000000     0.057080000000    -0.26221    
O125     O      0.800980000000     0.908810000000     0.944890000000    -0.262955   
O126     O      0.195450000000     0.964300000000     0.098080000000    -0.258452   
O127     O      0.918060000000     0.991090000000     0.800110000000    -0.26644    
O128     O      0.095840000000     0.002830000000     0.191840000000    -0.26228    
Zn1      Zn     0.045120000000     0.037790000000     0.956020000000     0.452406   
Zn2      Zn     0.959400000000     0.948570000000     0.956640000000     0.456925   
Zn3      Zn     0.047180000000     0.953440000000     0.044710000000     0.464457   
Zn4      Zn     0.954210000000     0.035350000000     0.043070000000     0.457103   
Zn5      Zn     0.056770000000     0.966310000000     0.538790000000     0.456195   
Zn6      Zn     0.055890000000     0.056850000000     0.457510000000     0.456988   
Zn7      Zn     0.966070000000     0.971700000000     0.451650000000     0.451586   
Zn8      Zn     0.967310000000     0.050390000000     0.545750000000     0.456265   
Zn9      Zn     0.039520000000     0.450110000000     0.956360000000     0.453257   
Zn10     Zn     0.953840000000     0.446460000000     0.043980000000     0.452069   
Zn11     Zn     0.043140000000     0.532620000000     0.050120000000     0.453388   
Zn12     Zn     0.956930000000     0.541370000000     0.963870000000     0.459889   
Zn13     Zn     0.954300000000     0.462570000000     0.545470000000     0.453175   
Zn14     Zn     0.041000000000     0.464050000000     0.460550000000     0.463538   
Zn15     Zn     0.953670000000     0.554120000000     0.458370000000     0.454187   
Zn16     Zn     0.039540000000     0.554820000000     0.545200000000     0.451006   
Zn17     Zn     0.452970000000     0.947150000000     0.050070000000     0.451531   
Zn18     Zn     0.454770000000     0.034410000000     0.960470000000     0.462238   
Zn19     Zn     0.540970000000     0.033130000000     0.048480000000     0.450039   
Zn20     Zn     0.537850000000     0.945170000000     0.959200000000     0.451286   
Zn21     Zn     0.470330000000     0.050970000000     0.546720000000     0.458392   
Zn22     Zn     0.464720000000     0.958860000000     0.465680000000     0.451079   
Zn23     Zn     0.554160000000     0.044810000000     0.456670000000     0.460081   
Zn24     Zn     0.556250000000     0.962790000000     0.548670000000     0.459161   
Zn25     Zn     0.456170000000     0.527310000000     0.949390000000     0.455962   
Zn26     Zn     0.460430000000     0.450100000000     0.048710000000     0.454545   
Zn27     Zn     0.547570000000     0.448430000000     0.959920000000     0.455048   
Zn28     Zn     0.539570000000     0.542810000000     0.039040000000     0.461584   
Zn29     Zn     0.457340000000     0.554000000000     0.459260000000     0.452531   
Zn30     Zn     0.454620000000     0.460370000000     0.541220000000     0.446557   
Zn31     Zn     0.539390000000     0.460840000000     0.452970000000     0.455519   
Zn32     Zn     0.546430000000     0.545290000000     0.543160000000     0.449165   


