data_structure

_audit_creation_method RASPA-1.0
_audit_creation_date 2023-5-19
_audit_author_name 'Poobodin Mano'

_cell_length_a    25.6801
_cell_length_b    25.6692
_cell_length_c    25.6124
_cell_angle_alpha 90
_cell_angle_beta  90
_cell_angle_gamma 90
_cell_volume      16883.4

_symmetry_cell_setting          triclinic
_symmetry_space_group_name_Hall 'P 1'
_symmetry_space_group_name_H-M  'P 1'
_symmetry_Int_Tables_number     1

_symmetry_equiv_pos_as_xyz 'x,y,z'

loop_
_atom_site_label
_atom_site_type_symbol
_atom_site_fract_x
_atom_site_fract_y
_atom_site_fract_z
_atom_site_charge
C1       C      0.990170000000     0.160130000000     0.993720000000     0.357844   
C2       C      0.002310000000     0.014170000000     0.135870000000     0.361931   
C3       C      0.855260000000     0.999660000000     0.993350000000     0.360652   
C4       C      0.005670000000     0.869560000000     0.986900000000     0.368147   
C5       C      0.144390000000     0.016960000000     0.995820000000     0.366178   
C6       C      0.001850000000     0.021560000000     0.849500000000     0.359643   
C7       C      0.996540000000     0.002860000000     0.350590000000     0.36127    
C8       C      0.149860000000     0.007260000000     0.485640000000     0.363488   
C9       C      0.016430000000     0.144660000000     0.501460000000     0.365702   
C10      C      0.006970000000     0.991360000000     0.640100000000     0.359158   
C11      C      0.006890000000     0.859030000000     0.493890000000     0.36476    
C12      C      0.860490000000     0.010040000000     0.496180000000     0.359284   
C13      C      0.000290000000     0.529630000000     0.152420000000     0.358284   
C14      C      0.144090000000     0.499110000000     0.011590000000     0.365579   
C15      C      0.983300000000     0.368340000000     0.026240000000     0.361664   
C16      C      0.005090000000     0.498950000000     0.866810000000     0.359767   
C17      C      0.007430000000     0.654650000000     0.993840000000     0.362842   
C18      C      0.855780000000     0.523400000000     0.003440000000     0.369335   
C19      C      0.003030000000     0.356200000000     0.501710000000     0.361457   
C20      C      0.004440000000     0.508840000000     0.364660000000     0.362914   
C21      C      0.862480000000     0.492820000000     0.509890000000     0.359998   
C22      C      0.004020000000     0.645590000000     0.510920000000     0.362934   
C23      C      0.149800000000     0.493880000000     0.507440000000     0.362967   
C24      C      0.014030000000     0.501450000000     0.651150000000     0.36441    
C25      C      0.354370000000     0.000300000000     0.021240000000     0.36198    
C26      C      0.508860000000     0.137880000000     0.005250000000     0.370262   
C27      C      0.495790000000     0.001110000000     0.152960000000     0.365791   
C28      C      0.641210000000     0.984210000000     0.006840000000     0.364028   
C29      C      0.485680000000     0.994440000000     0.866060000000     0.362215   
C30      C      0.490930000000     0.848490000000     0.005870000000     0.365038   
C31      C      0.359650000000     0.989630000000     0.508620000000     0.359825   
C32      C      0.511560000000     0.992910000000     0.364570000000     0.361975   
C33      C      0.487370000000     0.144560000000     0.497510000000     0.366725   
C34      C      0.648530000000     0.019530000000     0.517310000000     0.364814   
C35      C      0.519550000000     0.857050000000     0.507470000000     0.364409   
C36      C      0.503240000000     0.006700000000     0.653140000000     0.360756   
C37      C      0.508680000000     0.636440000000     0.997550000000     0.359419   
C38      C      0.490460000000     0.485790000000     0.142230000000     0.363528   
C39      C      0.358140000000     0.494690000000     0.997030000000     0.359267   
C40      C      0.509010000000     0.349620000000     0.987650000000     0.363416   
C41      C      0.645440000000     0.498160000000     0.006150000000     0.363269   
C42      C      0.496000000000     0.487510000000     0.856260000000     0.367547   
C43      C      0.360130000000     0.497130000000     0.488650000000     0.367793   
C44      C      0.503600000000     0.353040000000     0.513290000000     0.361984   
C45      C      0.495680000000     0.491770000000     0.358330000000     0.357566   
C46      C      0.646510000000     0.490370000000     0.501490000000     0.3644     
C47      C      0.494220000000     0.502920000000     0.643990000000     0.361096   
C48      C      0.508120000000     0.642600000000     0.508290000000     0.361154   
C49      C      0.538910000000     0.517070000000     0.727870000000    -0.01562    
C50      C      0.441350000000     0.507470000000     0.724920000000    -0.0444287  
C51      C      0.541240000000     0.478480000000     0.772950000000    -0.0109687  
C52      C      0.443710000000     0.472840000000     0.773980000000     0.0788742  
C53      C      0.393230000000     0.477820000000     0.806050000000    -0.191464   
C54      C      0.488520000000     0.436120000000     0.279780000000    -0.0151556  
C55      C      0.458700000000     0.528690000000     0.277790000000    -0.043214   
C56      C      0.507140000000     0.440620000000     0.223040000000    -0.0134323  
C57      C      0.482450000000     0.536660000000     0.223480000000     0.0779746  
C58      C      0.449600000000     0.577740000000     0.193950000000    -0.191378   
C59      C      0.471950000000     0.728070000000     0.481930000000    -0.0153321  
C60      C      0.537490000000     0.722580000000     0.554440000000    -0.0444541  
C61      C      0.500510000000     0.775450000000     0.460300000000    -0.0136162  
C62      C      0.564880000000     0.771790000000     0.533110000000     0.0769728  
C63      C      0.593860000000     0.799460000000     0.577900000000    -0.188468   
C64      C      0.542920000000     0.268640000000     0.487300000000    -0.0156519  
C65      C      0.470690000000     0.271100000000     0.553260000000    -0.0455077  
C66      C      0.513010000000     0.227630000000     0.456120000000    -0.0130844  
C67      C      0.441200000000     0.229650000000     0.521350000000     0.0787092  
C68      C      0.401740000000     0.200470000000     0.555850000000    -0.189517   
C69      C      0.527580000000     0.718960000000     0.043720000000    -0.0158629  
C70      C      0.508150000000     0.719040000000     0.947420000000    -0.0442771  
C71      C      0.489810000000     0.764520000000     0.051360000000    -0.0114587  
C72      C      0.472540000000     0.766610000000     0.954940000000     0.0783215  
C73      C      0.470230000000     0.799510000000     0.904670000000    -0.190927   
C74      C      0.460310000000     0.267540000000     0.978220000000    -0.0137937  
C75      C      0.557520000000     0.268340000000     0.969380000000    -0.0425391  
C76      C      0.463430000000     0.220340000000     0.013750000000    -0.0117097  
C77      C      0.561720000000     0.220360000000     0.005610000000     0.0775531  
C78      C      0.609850000000     0.187920000000     0.989810000000    -0.190965   
C79      C      0.539570000000     0.978250000000     0.738230000000    -0.0151264  
C80      C      0.471870000000     0.048590000000     0.734810000000    -0.0441902  
C81      C      0.509720000000     0.952360000000     0.782770000000    -0.0137472  
C82      C      0.442480000000     0.022450000000     0.780330000000     0.0771021  
C83      C      0.409350000000     0.063340000000     0.809210000000    -0.18924    
C84      C      0.552720000000     0.016790000000     0.279920000000    -0.015835   
C85      C      0.480740000000     0.950880000000     0.283100000000    -0.0452869  
C86      C      0.525200000000     0.044090000000     0.234340000000    -0.0138524  
C87      C      0.451880000000     0.980600000000     0.240010000000     0.0795188  
C88      C      0.411860000000     0.944860000000     0.213090000000    -0.19051    
C89      C      0.780440000000     0.531400000000     0.480030000000    -0.0151856  
C90      C      0.783590000000     0.437930000000     0.510290000000    -0.04367    
C91      C      0.727600000000     0.537540000000     0.505690000000    -0.0103104  
C92      C      0.725940000000     0.442420000000     0.527670000000     0.0761397  
C93      C      0.697560000000     0.390370000000     0.518130000000    -0.191001   
C94      C      0.233720000000     0.537840000000     0.522940000000    -0.0155799  
C95      C      0.230740000000     0.441600000000     0.502970000000    -0.0444475  
C96      C      0.277730000000     0.544450000000     0.483380000000    -0.0109344  
C97      C      0.277820000000     0.448250000000     0.466520000000     0.0793791  
C98      C      0.309940000000     0.397670000000     0.463330000000    -0.191443   
C99      C      0.727460000000     0.505820000000     0.056510000000    -0.0155539  
C100     C      0.728910000000     0.486210000000     0.960140000000    -0.0439017  
C101     C      0.773850000000     0.542420000000     0.049010000000    -0.0112739  
C102     C      0.772030000000     0.526860000000     0.952220000000     0.0782041  
C103     C      0.802930000000     0.513900000000     0.902190000000    -0.190259   
C104     C      0.275520000000     0.541560000000     0.982540000000    -0.0154351  
C105     C      0.276480000000     0.444080000000     0.992100000000    -0.0443331  
C106     C      0.227660000000     0.544210000000     0.017780000000    -0.0116275  
C107     C      0.226000000000     0.446640000000     0.024360000000     0.0778861  
C108     C      0.194380000000     0.396090000000     0.017530000000    -0.190306   
C109     C      0.005600000000     0.448270000000     0.784910000000    -0.0163433  
C110     C      0.992020000000     0.545670000000     0.784410000000    -0.0428401  
C111     C      0.031450000000     0.452660000000     0.731020000000    -0.0119095  
C112     C      0.024990000000     0.550460000000     0.734810000000     0.0786271  
C113     C      0.009380000000     0.600740000000     0.705460000000    -0.19193    
C114     C      0.046440000000     0.549630000000     0.234960000000    -0.0163839  
C115     C      0.949750000000     0.535270000000     0.234240000000    -0.0441496  
C116     C      0.051500000000     0.512320000000     0.281550000000    -0.0110373  
C117     C      0.954410000000     0.498840000000     0.281430000000     0.0792517  
C118     C      0.903460000000     0.499080000000     0.313270000000    -0.191644   
C119     C      0.953800000000     0.727700000000     0.511730000000    -0.0145573  
C120     C      0.049850000000     0.727740000000     0.530240000000    -0.0431412  
C121     C      0.959980000000     0.777810000000     0.480160000000    -0.0116675  
C122     C      0.057320000000     0.775520000000     0.494780000000     0.0782735  
C123     C      0.105370000000     0.806560000000     0.513580000000    -0.191216   
C124     C      0.988000000000     0.272320000000     0.546460000000    -0.0157935  
C125     C      0.002460000000     0.275400000000     0.449030000000    -0.0460376  
C126     C      0.025340000000     0.226070000000     0.550400000000    -0.0111221  
C127     C      0.037850000000     0.227460000000     0.453400000000     0.0798645  
C128     C      0.038420000000     0.196390000000     0.401920000000    -0.192317   
C129     C      0.775840000000     0.044780000000     0.463540000000    -0.0166462  
C130     C      0.778420000000     0.971940000000     0.529420000000    -0.0458428  
C131     C      0.728720000000     0.067970000000     0.492720000000    -0.0138437  
C132     C      0.735710000000     0.999410000000     0.560770000000     0.0792488  
C133     C      0.709660000000     0.961170000000     0.599080000000    -0.189271   
C134     C      0.276930000000     0.950270000000     0.475970000000    -0.0163737  
C135     C      0.275240000000     0.021100000000     0.543580000000    -0.0454447  
C136     C      0.233230000000     0.978490000000     0.445890000000    -0.0142878  
C137     C      0.235540000000     0.050950000000     0.510400000000     0.0787264  
C138     C      0.206730000000     0.092100000000     0.543270000000    -0.189278   
C139     C      0.059630000000     0.735210000000     0.987520000000    -0.0153136  
C140     C      0.966120000000     0.733740000000     0.958920000000    -0.0424906  
C141     C      0.052500000000     0.791070000000     0.007270000000    -0.0121003  
C142     C      0.956860000000     0.787080000000     0.984120000000     0.0783674  
C143     C      0.912820000000     0.815550000000     0.954490000000    -0.192206   
C144     C      0.035750000000     0.244510000000     0.001580000000    -0.0163373  
C145     C      0.939110000000     0.242170000000     0.985470000000    -0.0439459  
C146     C      0.027760000000     0.285850000000     0.043500000000    -0.00938077 
C147     C      0.931250000000     0.284780000000     0.027840000000     0.0769104  
C148     C      0.882460000000     0.317400000000     0.015400000000    -0.191577   
C149     C      0.768740000000     0.033740000000     0.970730000000    -0.0152523  
C150     C      0.780240000000     0.939420000000     0.994870000000    -0.0429429  
C151     C      0.719850000000     0.035990000000     0.004070000000    -0.00980579 
C152     C      0.726050000000     0.939610000000     0.021320000000     0.075919   
C153     C      0.698960000000     0.886670000000     0.013320000000    -0.190381   
C154     C      0.267860000000     0.960340000000     0.034800000000    -0.0153371  
C155     C      0.277680000000     0.057520000000     0.031650000000    -0.043411   
C156     C      0.223370000000     0.963730000000     0.995120000000    -0.011686   
C157     C      0.231500000000     0.061560000000     0.993800000000     0.0777729  
C158     C      0.203850000000     0.114450000000     0.000090000000    -0.1902     
C159     C      0.959570000000     0.979770000000     0.723650000000    -0.0156213  
C160     C      0.056730000000     0.992120000000     0.722910000000    -0.0442601  
C161     C      0.954730000000     0.022050000000     0.765960000000    -0.0118222  
C162     C      0.051730000000     0.033750000000     0.765590000000     0.0790726  
C163     C      0.102230000000     0.038050000000     0.797770000000    -0.191012   
C164     C      0.994840000000     0.955300000000     0.266530000000    -0.0142468  
C165     C      0.970590000000     0.050040000000     0.270830000000    -0.0425358  
C166     C      0.022700000000     0.965150000000     0.214630000000    -0.0125362  
C167     C      0.002880000000     0.061290000000     0.221500000000     0.076909   
C168     C      0.979900000000     0.109240000000     0.193230000000    -0.189966   
H1       H      0.386980000000     0.518590000000     0.819140000000     0.085424   
H2       H      0.433020000000     0.548180000000     0.737260000000     0.049002   
H3       H      0.537390000000     0.557260000000     0.744030000000     0.0446322  
H4       H      0.576450000000     0.487190000000     0.796770000000     0.0444365  
H5       H      0.408640000000     0.494680000000     0.699490000000     0.053049   
H6       H      0.359330000000     0.466340000000     0.781670000000     0.0665585  
H7       H      0.445090000000     0.431920000000     0.759610000000     0.0213556  
H8       H      0.575180000000     0.513140000000     0.704460000000     0.0471148  
H9       H      0.545150000000     0.438410000000     0.756880000000     0.043576   
H10      H      0.394150000000     0.451210000000     0.840250000000     0.0804872  
H11      H      0.411840000000     0.560750000000     0.181320000000     0.0758691  
H12      H      0.417020000000     0.517450000000     0.273650000000     0.0503946  
H13      H      0.448700000000     0.419070000000     0.279470000000     0.0412774  
H14      H      0.497600000000     0.403880000000     0.202020000000     0.0438576  
H15      H      0.460290000000     0.566370000000     0.299240000000     0.0540284  
H16      H      0.441510000000     0.611920000000     0.219330000000     0.067024   
H17      H      0.522490000000     0.552470000000     0.228650000000     0.027994   
H18      H      0.514150000000     0.408270000000     0.300870000000     0.0471869  
H19      H      0.550330000000     0.443910000000     0.223430000000     0.0428369  
H20      H      0.470520000000     0.593140000000     0.159390000000     0.0857826  
H21      H      0.566040000000     0.816370000000     0.606480000000     0.0819304  
H22      H      0.509840000000     0.734490000000     0.585680000000     0.0487815  
H23      H      0.439780000000     0.741910000000     0.507490000000     0.044471   
H24      H      0.472180000000     0.799490000000     0.438080000000     0.0485205  
H25      H      0.567020000000     0.696530000000     0.572530000000     0.0540248  
H26      H      0.618940000000     0.771220000000     0.599100000000     0.0646537  
H27      H      0.595240000000     0.757780000000     0.505430000000     0.0215894  
H28      H      0.454260000000     0.706380000000     0.448820000000     0.0482024  
H29      H      0.530180000000     0.761520000000     0.431900000000     0.0421323  
H30      H      0.620450000000     0.829840000000     0.562330000000     0.082652   
H31      H      0.421070000000     0.181900000000     0.589910000000     0.0835224  
H32      H      0.494180000000     0.251070000000     0.583740000000     0.0493596  
H33      H      0.570010000000     0.248110000000     0.514220000000     0.0426827  
H34      H      0.541290000000     0.203450000000     0.434000000000     0.0482761  
H35      H      0.442380000000     0.297080000000     0.573300000000     0.0528095  
H36      H      0.372570000000     0.228460000000     0.571360000000     0.0634472  
H37      H      0.417560000000     0.251490000000     0.492170000000     0.0196169  
H38      H      0.566900000000     0.292360000000     0.460120000000     0.0470087  
H39      H      0.488140000000     0.248100000000     0.427060000000     0.0419294  
H40      H      0.380000000000     0.171170000000     0.532530000000     0.0823168  
H41      H      0.509530000000     0.813690000000     0.893420000000     0.0838528  
H42      H      0.547510000000     0.733040000000     0.935910000000     0.0483119  
H43      H      0.567570000000     0.734870000000     0.038840000000     0.0431908  
H44      H      0.503020000000     0.788210000000     0.085280000000     0.0413436  
H45      H      0.493190000000     0.694490000000     0.914920000000     0.0528739  
H46      H      0.455050000000     0.775410000000     0.872000000000     0.0663147  
H47      H      0.432600000000     0.750890000000     0.961110000000     0.0224292  
H48      H      0.527010000000     0.694360000000     0.079460000000     0.0447929  
H49      H      0.450520000000     0.748650000000     0.060380000000     0.0423911  
H50      H      0.443220000000     0.832940000000     0.909610000000     0.080186   
H51      H      0.602390000000     0.166100000000     0.953090000000     0.0756013  
H52      H      0.556490000000     0.254980000000     0.928040000000     0.0489821  
H53      H      0.454360000000     0.253530000000     0.937560000000     0.0414875  
H54      H      0.427860000000     0.196150000000     0.008360000000     0.0435189  
H55      H      0.592500000000     0.293420000000     0.974640000000     0.0513311  
H56      H      0.644090000000     0.213670000000     0.983570000000     0.0650963  
H57      H      0.568030000000     0.235050000000     0.046000000000     0.0242285  
H58      H      0.425800000000     0.291410000000     0.988990000000     0.0450062  
H59      H      0.463370000000     0.234300000000     0.054860000000     0.0435752  
H60      H      0.621020000000     0.160490000000     0.021340000000     0.0861277  
H61      H      0.434350000000     0.092730000000     0.828880000000     0.0831744  
H62      H      0.498160000000     0.078980000000     0.751080000000     0.0477945  
H63      H      0.569900000000     0.004000000000     0.755390000000     0.0425204  
H64      H      0.537760000000     0.929830000000     0.806860000000     0.0458721  
H65      H      0.443470000000     0.068450000000     0.708770000000     0.0521953  
H66      H      0.384020000000     0.084310000000     0.781000000000     0.0641854  
H67      H      0.414590000000     0.994550000000     0.762250000000     0.0209751  
H68      H      0.559650000000     0.947600000000     0.715130000000     0.0444678  
H69      H      0.482060000000     0.923800000000     0.765490000000     0.0395445  
H70      H      0.382770000000     0.044240000000     0.837560000000     0.0845257  
H71      H      0.430960000000     0.910410000000     0.195110000000     0.0854079  
H72      H      0.505210000000     0.920180000000     0.264670000000     0.0499481  
H73      H      0.581640000000     0.989060000000     0.263420000000     0.0439009  
H74      H      0.555240000000     0.062310000000     0.209030000000     0.0489189  
H75      H      0.452180000000     0.931120000000     0.309040000000     0.0549409  
H76      H      0.383560000000     0.930150000000     0.242430000000     0.0672887  
H77      H      0.428720000000     0.011410000000     0.260000000000     0.0224037  
H78      H      0.574390000000     0.046270000000     0.303090000000     0.0485332  
H79      H      0.500910000000     0.076070000000     0.250640000000     0.0426298  
H80      H      0.388920000000     0.966950000000     0.183740000000     0.0862381  
H81      H      0.692810000000     0.383160000000     0.475620000000     0.083387   
H82      H      0.785180000000     0.418540000000     0.471460000000     0.0472729  
H83      H      0.774880000000     0.522100000000     0.437980000000     0.045136   
H84      H      0.705700000000     0.569020000000     0.485300000000     0.0405556  
H85      H      0.804760000000     0.412220000000     0.538100000000     0.0529624  
H86      H      0.720170000000     0.357650000000     0.535250000000     0.06671    
H87      H      0.726390000000     0.448830000000     0.570670000000     0.0217214  
H88      H      0.801290000000     0.569310000000     0.482860000000     0.0461619  
H89      H      0.733130000000     0.549410000000     0.547110000000     0.0458229  
H90      H      0.658760000000     0.390390000000     0.537290000000     0.0811313  
H91      H      0.323420000000     0.385120000000     0.502570000000     0.0838289  
H92      H      0.245050000000     0.429010000000     0.541970000000     0.0491725  
H93      H      0.251000000000     0.532540000000     0.562400000000     0.0453297  
H94      H      0.302150000000     0.578290000000     0.495200000000     0.0440332  
H95      H      0.204910000000     0.410230000000     0.487870000000     0.0526522  
H96      H      0.285500000000     0.365900000000     0.446980000000     0.0658443  
H97      H      0.261520000000     0.454880000000     0.426780000000     0.0221895  
H98      H      0.209950000000     0.574060000000     0.523290000000     0.0465614  
H99      H      0.260510000000     0.552830000000     0.444420000000     0.0432737  
H100     H      0.343830000000     0.402840000000     0.436890000000     0.0795634  
H101     H      0.826650000000     0.478060000000     0.907390000000     0.0781694  
H102     H      0.747010000000     0.447150000000     0.965320000000     0.0490461  
H103     H      0.742700000000     0.467250000000     0.069040000000     0.0436071  
H104     H      0.798740000000     0.541540000000     0.084560000000     0.044588   
H105     H      0.704120000000     0.484870000000     0.924530000000     0.0535672  
H106     H      0.775870000000     0.507400000000     0.868970000000     0.0661247  
H107     H      0.752610000000     0.565160000000     0.946050000000     0.0224042  
H108     H      0.702400000000     0.520870000000     0.088530000000     0.0474848  
H109     H      0.758400000000     0.582710000000     0.045260000000     0.0410387  
H110     H      0.828070000000     0.547170000000     0.890750000000     0.0864454  
H111     H      0.181510000000     0.391250000000     0.976400000000     0.0837556  
H112     H      0.266120000000     0.436060000000     0.950680000000     0.0469557  
H113     H      0.262490000000     0.540740000000     0.941130000000     0.0436978  
H114     H      0.204480000000     0.579130000000     0.006600000000     0.0448843  
H115     H      0.300700000000     0.410890000000     0.005910000000     0.0525754  
H116     H      0.218810000000     0.361910000000     0.027970000000     0.0647919  
H117     H      0.238210000000     0.447960000000     0.066050000000     0.0219461  
H118     H      0.299270000000     0.577290000000     0.988650000000     0.0454185  
H119     H      0.240710000000     0.549210000000     0.058900000000     0.0440604  
H120     H      0.160240000000     0.395750000000     0.044150000000     0.0809009  
H121     H      0.970960000000     0.596080000000     0.686050000000     0.077763   
H122     H      0.950080000000     0.543850000000     0.773550000000     0.0510959  
H123     H      0.964460000000     0.436080000000     0.779040000000     0.0427238  
H124     H      0.020700000000     0.418070000000     0.707140000000     0.04386    
H125     H      0.998090000000     0.581200000000     0.808620000000     0.0526594  
H126     H      0.006780000000     0.634160000000     0.732920000000     0.0663347  
H127     H      0.066460000000     0.554190000000     0.746940000000     0.0239227  
H128     H      0.025070000000     0.416880000000     0.807600000000     0.0456633  
H129     H      0.074330000000     0.451100000000     0.736850000000     0.0404363  
H130     H      0.039390000000     0.611660000000     0.676300000000     0.0872105  
H131     H      0.895010000000     0.538570000000     0.328860000000     0.0858941  
H132     H      0.941130000000     0.575240000000     0.248660000000     0.0501945  
H133     H      0.043240000000     0.590120000000     0.250080000000     0.0454376  
H134     H      0.084830000000     0.525000000000     0.306290000000     0.0426266  
H135     H      0.916490000000     0.523050000000     0.209240000000     0.0534179  
H136     H      0.870350000000     0.487350000000     0.287930000000     0.0677954  
H137     H      0.958810000000     0.458720000000     0.265470000000     0.0236277  
H138     H      0.082180000000     0.546860000000     0.210580000000     0.0463537  
H139     H      0.060140000000     0.472590000000     0.266550000000     0.0441588  
H140     H      0.905480000000     0.470440000000     0.345710000000     0.0815243  
H141     H      0.096490000000     0.828220000000     0.550080000000     0.0767102  
H142     H      0.044800000000     0.741030000000     0.571300000000     0.0490767  
H143     H      0.942100000000     0.738570000000     0.552090000000     0.0421516  
H144     H      0.924660000000     0.802390000000     0.485440000000     0.0444686  
H145     H      0.085470000000     0.703100000000     0.528380000000     0.0522909  
H146     H      0.138580000000     0.779920000000     0.521400000000     0.0662757  
H147     H      0.065430000000     0.761000000000     0.454640000000     0.0247205  
H148     H      0.921660000000     0.704100000000     0.494810000000     0.046437   
H149     H      0.961860000000     0.767030000000     0.438150000000     0.0429942  
H150     H      0.119000000000     0.833940000000     0.483010000000     0.0865149  
H151     H      0.998550000000     0.184080000000     0.390510000000     0.0849298  
H152     H      0.962500000000     0.262160000000     0.438760000000     0.0502798  
H153     H      0.947520000000     0.257200000000     0.543580000000     0.0451932  
H154     H      0.013710000000     0.201370000000     0.584170000000     0.0425939  
H155     H      0.016330000000     0.300920000000     0.416790000000     0.0533109  
H156     H      0.054120000000     0.221180000000     0.370030000000     0.0659201  
H157     H      0.078100000000     0.242670000000     0.458880000000     0.0202364  
H158     H      0.991150000000     0.295670000000     0.582900000000     0.0471964  
H159     H      0.065360000000     0.241040000000     0.557550000000     0.0409725  
H160     H      0.064240000000     0.161830000000     0.405330000000     0.0791067  
H161     H      0.692550000000     0.927240000000     0.578290000000     0.0818771  
H162     H      0.759980000000     0.942950000000     0.502940000000     0.0511693  
H163     H      0.760900000000     0.021290000000     0.430290000000     0.044665   
H164     H      0.703120000000     0.087760000000     0.463940000000     0.0479339  
H165     H      0.804240000000     0.950290000000     0.556700000000     0.0553392  
H166     H      0.739250000000     0.945800000000     0.626750000000     0.0654366  
H167     H      0.755720000000     0.028980000000     0.585530000000     0.0216915  
H168     H      0.799430000000     0.077110000000     0.446970000000     0.0475621  
H169     H      0.743490000000     0.098440000000     0.519800000000     0.040611   
H170     H      0.679840000000     0.981450000000     0.623030000000     0.0842129  
H171     H      0.188000000000     0.074410000000     0.578120000000     0.084106   
H172     H      0.253820000000     0.996570000000     0.572250000000     0.0494597  
H173     H      0.258550000000     0.920390000000     0.501430000000     0.0413407  
H174     H      0.208730000000     0.948830000000     0.426030000000     0.0463388  
H175     H      0.299590000000     0.049090000000     0.565970000000     0.0524713  
H176     H      0.235030000000     0.121580000000     0.557610000000     0.0636523  
H177     H      0.258540000000     0.073400000000     0.481150000000     0.0207395  
H178     H      0.302320000000     0.929560000000     0.447620000000     0.0470486  
H179     H      0.251620000000     0.002850000000     0.415060000000     0.0412873  
H180     H      0.177680000000     0.113210000000     0.519080000000     0.0828266  
H181     H      0.926240000000     0.827600000000     0.915050000000     0.0747798  
H182     H      0.975800000000     0.739130000000     0.916890000000     0.0503656  
H183     H      0.076530000000     0.737110000000     0.947580000000     0.0421444  
H184     H      0.088490000000     0.813820000000     0.998970000000     0.0410075  
H185     H      0.929490000000     0.710670000000     0.961390000000     0.052777   
H186     H      0.878390000000     0.789710000000     0.950040000000     0.0655353  
H187     H      0.943790000000     0.780580000000     0.025060000000     0.0271261  
H188     H      0.088400000000     0.714890000000     0.012770000000     0.0472795  
H189     H      0.047960000000     0.789670000000     0.050450000000     0.0428973  
H190     H      0.899380000000     0.850410000000     0.976260000000     0.0838143  
H191     H      0.888450000000     0.341340000000     0.979760000000     0.0759469  
H192     H      0.941440000000     0.261230000000     0.946530000000     0.0501482  
H193     H      0.044640000000     0.264720000000     0.964220000000     0.0448056  
H194     H      0.062840000000     0.311250000000     0.045760000000     0.0391459  
H195     H      0.904930000000     0.215510000000     0.985350000000     0.0507919  
H196     H      0.848500000000     0.291410000000     0.008750000000     0.0655323  
H197     H      0.924120000000     0.264130000000     0.065390000000     0.0210399  
H198     H      0.070210000000     0.220320000000     0.011740000000     0.0434935  
H199     H      0.023790000000     0.265670000000     0.081720000000     0.039405   
H200     H      0.872440000000     0.342930000000     0.048880000000     0.0852923  
H201     H      0.688800000000     0.880850000000     0.971560000000     0.0819491  
H202     H      0.776180000000     0.923380000000     0.954710000000     0.0450855  
H203     H      0.757580000000     0.025210000000     0.929640000000     0.0447361  
H204     H      0.693710000000     0.066870000000     0.988320000000     0.0380614  
H205     H      0.806570000000     0.912620000000     0.016530000000     0.0501884  
H206     H      0.725150000000     0.854500000000     0.025710000000     0.0655164  
H207     H      0.733020000000     0.943950000000     0.064000000000     0.0223654  
H208     H      0.788100000000     0.072510000000     0.971910000000     0.0445392  
H209     H      0.730770000000     0.046850000000     0.044680000000     0.0448633  
H210     H      0.663160000000     0.884060000000     0.037530000000     0.0789953  
H211     H      0.187540000000     0.118840000000     0.040020000000     0.0836731  
H212     H      0.262880000000     0.062910000000     0.072120000000     0.0478347  
H213     H      0.251000000000     0.960780000000     0.074800000000     0.0430491  
H214     H      0.195820000000     0.931060000000     0.002520000000     0.0434431  
H215     H      0.305970000000     0.089440000000     0.023890000000     0.0512598  
H216     H      0.232040000000     0.146640000000     0.993590000000     0.0642976  
H217     H      0.248330000000     0.061100000000     0.953740000000     0.0209031  
H218     H      0.289040000000     0.922950000000     0.029180000000     0.0442927  
H219     H      0.239750000000     0.958820000000     0.955220000000     0.0429001  
H220     H      0.172530000000     0.118860000000     0.970500000000     0.0783893  
H221     H      0.113310000000     0.999900000000     0.814940000000     0.0850996  
H222     H      0.064550000000     0.953970000000     0.741970000000     0.0498564  
H223     H      0.961460000000     0.941110000000     0.743150000000     0.043677   
H224     H      0.920520000000     0.013080000000     0.791090000000     0.043051   
H225     H      0.090550000000     0.001060000000     0.697260000000     0.0514125  
H226     H      0.134670000000     0.050840000000     0.772080000000     0.0652975  
H227     H      0.047150000000     0.071640000000     0.744910000000     0.0229011  
H228     H      0.924220000000     0.980700000000     0.698580000000     0.0451573  
H229     H      0.947760000000     0.060160000000     0.746510000000     0.0434832  
H230     H      0.097930000000     0.067670000000     0.829090000000     0.0779699  
H231     H      0.942710000000     0.099150000000     0.173480000000     0.0766646  
H232     H      0.929360000000     0.042980000000     0.259410000000     0.0512899  
H233     H      0.954900000000     0.941100000000     0.257690000000     0.0446197  
H234     H      0.017830000000     0.930470000000     0.188990000000     0.0449914  
H235     H      0.971610000000     0.084940000000     0.296610000000     0.050852   
H236     H      0.972160000000     0.141180000000     0.221480000000     0.0650099  
H237     H      0.043140000000     0.071110000000     0.234230000000     0.0232907  
H238     H      0.015310000000     0.923750000000     0.288050000000     0.0471947  
H239     H      0.065040000000     0.968980000000     0.222890000000     0.042064   
H240     H      0.007900000000     0.125210000000     0.164410000000     0.0851336  
N1       N      0.492780000000     0.482340000000     0.803300000000    -0.170035   
N2       N      0.491560000000     0.507240000000     0.697030000000    -0.153905   
N3       N      0.485870000000     0.486260000000     0.195280000000    -0.168019   
N4       N      0.486130000000     0.487110000000     0.305900000000    -0.152641   
N5       N      0.527060000000     0.804020000000     0.502830000000    -0.167871   
N6       N      0.507760000000     0.695820000000     0.513050000000    -0.153774   
N7       N      0.479580000000     0.197330000000     0.491930000000    -0.169232   
N8       N      0.506130000000     0.300020000000     0.518440000000    -0.155017   
N9       N      0.487220000000     0.795450000000     0.003090000000    -0.169691   
N10      N      0.513230000000     0.689500000000     0.996480000000    -0.153729   
N11      N      0.511860000000     0.190900000000     0.004500000000    -0.170171   
N12      N      0.509280000000     0.297000000000     0.980550000000    -0.154949   
N13      N      0.479890000000     0.991730000000     0.812600000000    -0.168352   
N14      N      0.503830000000     0.010040000000     0.706540000000    -0.154603   
N15      N      0.491050000000     0.007090000000     0.206160000000    -0.168889   
N16      N      0.514810000000     0.987360000000     0.311510000000    -0.153862   
N17      N      0.699470000000     0.487900000000     0.503590000000    -0.168765   
N18      N      0.809570000000     0.488900000000     0.505190000000    -0.15386    
N19      N      0.307600000000     0.495710000000     0.480940000000    -0.170128   
N20      N      0.202830000000     0.491360000000     0.509490000000    -0.154108   
N21      N      0.803000000000     0.529590000000     0.001050000000    -0.170651   
N22      N      0.698600000000     0.498930000000     0.007320000000    -0.154415   
N23      N      0.197240000000     0.495700000000     0.013310000000    -0.16903    
N24      N      0.305040000000     0.493880000000     0.993920000000    -0.154224   
N25      N      0.018810000000     0.501940000000     0.704210000000    -0.169018   
N26      N      0.005660000000     0.498040000000     0.813430000000    -0.153992   
N27      N      0.002470000000     0.510980000000     0.311430000000    -0.168991   
N28      N      0.999180000000     0.536860000000     0.205210000000    -0.152513   
N29      N      0.008180000000     0.805920000000     0.493790000000    -0.169082   
N30      N      0.003110000000     0.698680000000     0.514390000000    -0.155001   
N31      N      0.024330000000     0.197180000000     0.500920000000    -0.170735   
N32      N      0.999880000000     0.303160000000     0.499330000000    -0.153458   
N33      N      0.701270000000     0.027640000000     0.523570000000    -0.168489   
N34      N      0.807050000000     0.010440000000     0.497590000000    -0.152813   
N35      N      0.203080000000     0.012600000000     0.481290000000    -0.169011   
N36      N      0.306280000000     0.987000000000     0.509230000000    -0.153721   
N37      N      0.006270000000     0.816690000000     0.984910000000    -0.169881   
N38      N      0.009800000000     0.707050000000     0.984630000000    -0.154108   
N39      N      0.979860000000     0.315610000000     0.033210000000    -0.16859    
N40      N      0.988000000000     0.213440000000     0.994680000000    -0.153392   
N41      N      0.694220000000     0.984760000000     0.004310000000    -0.169032   
N42      N      0.802710000000     0.992120000000     0.990240000000    -0.15424    
N43      N      0.197490000000     0.014960000000     0.998720000000    -0.169893   
N44      N      0.302000000000     0.005680000000     0.028220000000    -0.155116   
N45      N      0.003430000000     0.024870000000     0.796230000000    -0.168484   
N46      N      0.007660000000     0.987900000000     0.693370000000    -0.153807   
N47      N      0.004850000000     0.013470000000     0.189090000000    -0.16809    
N48      N      0.990540000000     0.003340000000     0.297530000000    -0.153753   
O1       O      0.999390000000     0.014260000000     0.992590000000    -0.366966   
O2       O      0.955800000000     0.134070000000     0.968900000000    -0.30048    
O3       O      0.026380000000     0.049590000000     0.110600000000    -0.307399   
O4       O      0.882780000000     0.970180000000     0.022320000000    -0.305153   
O5       O      0.026970000000     0.136940000000     0.017600000000    -0.308591   
O6       O      0.876360000000     0.035230000000     0.965870000000    -0.305274   
O7       O      0.977620000000     0.977970000000     0.112320000000    -0.301918   
O8       O      0.035060000000     0.895580000000     0.956580000000    -0.304349   
O9       O      0.119100000000     0.050620000000     0.022100000000    -0.308469   
O10      O      0.976080000000     0.891950000000     0.019630000000    -0.311044   
O11      O      0.120650000000     0.983540000000     0.968020000000    -0.309713   
O12      O      0.036390000000     0.995030000000     0.873470000000    -0.307042   
O13      O      0.964990000000     0.044130000000     0.874320000000    -0.30066    
O14      O      0.005250000000     0.002030000000     0.494910000000    -0.369319   
O15      O      0.973890000000     0.037690000000     0.377670000000    -0.307671   
O16      O      0.124980000000     0.978380000000     0.453610000000    -0.304288   
O17      O      0.036980000000     0.117420000000     0.537640000000    -0.307592   
O18      O      0.024230000000     0.967790000000     0.372520000000    -0.300856   
O19      O      0.989090000000     0.123600000000     0.465830000000    -0.310089   
O20      O      0.125350000000     0.031030000000     0.521520000000    -0.312175   
O21      O      0.970380000000     0.969750000000     0.614270000000    -0.302239   
O22      O      0.040770000000     0.884260000000     0.467880000000    -0.309231   
O23      O      0.042810000000     0.016550000000     0.616780000000    -0.306324   
O24      O      0.970690000000     0.882450000000     0.518660000000    -0.303186   
O25      O      0.884900000000     0.975620000000     0.522240000000    -0.306573   
O26      O      0.885530000000     0.043350000000     0.468830000000    -0.299452   
O27      O      0.000240000000     0.510760000000     0.010270000000    -0.36985    
O28      O      0.965330000000     0.501500000000     0.131020000000    -0.302488   
O29      O      0.121940000000     0.537470000000     0.033850000000    -0.306868   
O30      O      0.020010000000     0.386200000000     0.997970000000    -0.307399   
O31      O      0.035530000000     0.551890000000     0.125190000000    -0.300308   
O32      O      0.951990000000     0.398940000000     0.050050000000    -0.30366    
O33      O      0.117380000000     0.465020000000     0.987210000000    -0.306387   
O34      O      0.982060000000     0.536460000000     0.889460000000    -0.311403   
O35      O      0.041230000000     0.632570000000     0.022820000000    -0.302035   
O36      O      0.026440000000     0.462530000000     0.893340000000    -0.300599   
O37      O      0.972240000000     0.627990000000     0.971440000000    -0.308968   
O38      O      0.884200000000     0.540270000000     0.966630000000    -0.314644   
O39      O      0.876230000000     0.502560000000     0.043580000000    -0.308279   
O40      O      0.006060000000     0.500230000000     0.507870000000    -0.371709   
O41      O      0.983600000000     0.379750000000     0.540770000000    -0.305723   
O42      O      0.039870000000     0.481760000000     0.386640000000    -0.303588   
O43      O      0.886030000000     0.527430000000     0.483400000000    -0.31021    
O44      O      0.024800000000     0.381600000000     0.464880000000    -0.303534   
O45      O      0.887910000000     0.461040000000     0.538670000000    -0.299994   
O46      O      0.970550000000     0.533310000000     0.391530000000    -0.306876   
O47      O      0.040470000000     0.620550000000     0.533180000000    -0.31049    
O48      O      0.124190000000     0.459990000000     0.481590000000    -0.303201   
O49      O      0.968150000000     0.621530000000     0.486460000000    -0.304492   
O50      O      0.126520000000     0.530460000000     0.531460000000    -0.307387   
O51      O      0.040500000000     0.533460000000     0.623980000000    -0.31003    
O52      O      0.984550000000     0.467760000000     0.629540000000    -0.302559   
O53      O      0.497770000000     0.993460000000     0.009440000000    -0.370235   
O54      O      0.377960000000     0.960960000000     0.040370000000    -0.30481    
O55      O      0.471930000000     0.115400000000     0.981040000000    -0.310055   
O56      O      0.528410000000     0.028960000000     0.127740000000    -0.304606   
O57      O      0.379200000000     0.035430000000     0.996640000000    -0.308505   
O58      O      0.467090000000     0.968850000000     0.128700000000    -0.311679   
O59      O      0.540750000000     0.111810000000     0.032640000000    -0.311192   
O60      O      0.615190000000     0.954180000000     0.976820000000    -0.30521    
O61      O      0.456180000000     0.023440000000     0.893590000000    -0.309277   
O62      O      0.618620000000     0.017220000000     0.036150000000    -0.310319   
O63      O      0.520190000000     0.966300000000     0.888190000000    -0.307188   
O64      O      0.515350000000     0.873330000000     0.970570000000    -0.310782   
O65      O      0.470370000000     0.872450000000     0.044260000000    -0.30655    
O66      O      0.504710000000     0.001390000000     0.508380000000    -0.366497   
O67      O      0.382830000000     0.021910000000     0.538420000000    -0.307692   
O68      O      0.478840000000     0.965550000000     0.390000000000    -0.305723   
O69      O      0.520780000000     0.121480000000     0.468790000000    -0.305052   
O70      O      0.385840000000     0.960420000000     0.478040000000    -0.302692   
O71      O      0.461700000000     0.118750000000     0.531070000000    -0.31188    
O72      O      0.541430000000     0.024880000000     0.388170000000    -0.302756   
O73      O      0.625050000000     0.985180000000     0.544250000000    -0.310896   
O74      O      0.485510000000     0.879330000000     0.478940000000    -0.305519   
O75      O      0.622880000000     0.047040000000     0.484770000000    -0.302875   
O76      O      0.547240000000     0.884270000000     0.538400000000    -0.30962    
O77      O      0.533570000000     0.974840000000     0.629930000000    -0.306984   
O78      O      0.472900000000     0.036040000000     0.626960000000    -0.306975   
O79      O      0.501640000000     0.492640000000     0.999450000000    -0.373615   
O80      O      0.482830000000     0.612990000000     0.962040000000    -0.302942   
O81      O      0.517600000000     0.521040000000     0.120430000000    -0.311616   
O82      O      0.382020000000     0.456710000000     0.018350000000    -0.304407   
O83      O      0.530310000000     0.610940000000     0.034320000000    -0.306171   
O84      O      0.383270000000     0.532480000000     0.976790000000    -0.305148   
O85      O      0.468180000000     0.450120000000     0.115480000000    -0.300301   
O86      O      0.545100000000     0.377270000000     0.967770000000    -0.30479    
O87      O      0.619100000000     0.518890000000     0.042970000000    -0.30268    
O88      O      0.471610000000     0.370580000000     0.012590000000    -0.306666   
O89      O      0.622730000000     0.476130000000     0.968020000000    -0.309966   
O90      O      0.534010000000     0.466420000000     0.880120000000    -0.308492   
O91      O      0.462440000000     0.514450000000     0.880940000000    -0.309164   
O92      O      0.503030000000     0.496990000000     0.501400000000    -0.371593   
O93      O      0.386120000000     0.535280000000     0.470490000000    -0.305954   
O94      O      0.473310000000     0.379530000000     0.542440000000    -0.305695   
O95      O      0.522540000000     0.457190000000     0.382100000000    -0.300815   
O96      O      0.382250000000     0.461410000000     0.514950000000    -0.310148   
O97      O      0.474870000000     0.529360000000     0.383390000000    -0.304576   
O98      O      0.531370000000     0.375510000000     0.478890000000    -0.308538   
O99      O      0.623060000000     0.523090000000     0.530510000000    -0.308068   
O100     O      0.456930000000     0.481800000000     0.618670000000    -0.303005   
O101     O      0.621450000000     0.460070000000     0.471020000000    -0.304536   
O102     O      0.534230000000     0.520470000000     0.620440000000    -0.306754   
O103     O      0.536630000000     0.615240000000     0.538350000000    -0.304647   
O104     O      0.478920000000     0.620590000000     0.474670000000    -0.304872   
Zn1      Zn     0.950430000000     0.056230000000     0.951710000000     0.443072   
Zn2      Zn     0.041850000000     0.061760000000     0.034140000000     0.444588   
Zn3      Zn     0.960140000000     0.965820000000     0.036270000000     0.450719   
Zn4      Zn     0.046100000000     0.973210000000     0.948620000000     0.448431   
Zn5      Zn     0.963860000000     0.050640000000     0.453800000000     0.449446   
Zn6      Zn     0.048020000000     0.959500000000     0.448200000000     0.445635   
Zn7      Zn     0.050590000000     0.040060000000     0.542150000000     0.448363   
Zn8      Zn     0.959170000000     0.958540000000     0.536350000000     0.450363   
Zn9      Zn     0.949810000000     0.478690000000     0.057410000000     0.445042   
Zn10     Zn     0.048050000000     0.557330000000     0.047070000000     0.44983    
Zn11     Zn     0.039900000000     0.457510000000     0.972540000000     0.442708   
Zn12     Zn     0.960810000000     0.552110000000     0.961690000000     0.459679   
Zn13     Zn     0.966210000000     0.454330000000     0.553770000000     0.448559   
Zn14     Zn     0.047810000000     0.457170000000     0.461320000000     0.447077   
Zn15     Zn     0.959540000000     0.545050000000     0.468660000000     0.452534   
Zn16     Zn     0.051940000000     0.545050000000     0.547360000000     0.455339   
Zn17     Zn     0.455090000000     0.949230000000     0.053940000000     0.446875   
Zn18     Zn     0.452620000000     0.040410000000     0.970880000000     0.449993   
Zn19     Zn     0.544980000000     0.036040000000     0.050830000000     0.453503   
Zn20     Zn     0.537000000000     0.948400000000     0.962730000000     0.445681   
Zn21     Zn     0.457260000000     0.043140000000     0.550340000000     0.450191   
Zn22     Zn     0.463810000000     0.953450000000     0.465760000000     0.450174   
Zn23     Zn     0.546630000000     0.047280000000     0.463730000000     0.448058   
Zn24     Zn     0.550800000000     0.961700000000     0.553950000000     0.445315   
Zn25     Zn     0.458950000000     0.537720000000     0.956240000000     0.447902   
Zn26     Zn     0.541360000000     0.534510000000     0.048010000000     0.452312   
Zn27     Zn     0.457400000000     0.443570000000     0.036280000000     0.449003   
Zn28     Zn     0.549750000000     0.454810000000     0.955550000000     0.457414   
Zn29     Zn     0.463040000000     0.545240000000     0.459160000000     0.45205    
Zn30     Zn     0.455010000000     0.456190000000     0.543590000000     0.448014   
Zn31     Zn     0.543930000000     0.449560000000     0.458370000000     0.447848   
Zn32     Zn     0.548260000000     0.537740000000     0.545790000000     0.454929   


