data_structure

_audit_creation_method RASPA-1.0
_audit_creation_date 2023-5-19
_audit_author_name 'Poobodin Mano'

_cell_length_a    25.9067
_cell_length_b    25.8762
_cell_length_c    25.8507
_cell_angle_alpha 90
_cell_angle_beta  90
_cell_angle_gamma 90
_cell_volume      17329.5

_symmetry_cell_setting          triclinic
_symmetry_space_group_name_Hall 'P 1'
_symmetry_space_group_name_H-M  'P 1'
_symmetry_Int_Tables_number     1

_symmetry_equiv_pos_as_xyz 'x,y,z'

loop_
_atom_site_label
_atom_site_type_symbol
_atom_site_fract_x
_atom_site_fract_y
_atom_site_fract_z
_atom_site_charge
C1       C      0.992520000000     0.995490000000     0.143690000000     0.377509   
C2       C      0.138780000000     0.001930000000     0.998160000000     0.370369   
C3       C      0.998650000000     0.853430000000     0.001950000000     0.36566    
C4       C      0.997920000000     0.998540000000     0.856790000000     0.377108   
C5       C      0.993380000000     0.142330000000     0.006580000000     0.366757   
C6       C      0.853590000000     0.997860000000     0.992630000000     0.368816   
C7       C      0.007200000000     0.998790000000     0.356620000000     0.36382    
C8       C      0.148100000000     0.988020000000     0.501670000000     0.369273   
C9       C      0.010650000000     0.141620000000     0.502580000000     0.374735   
C10      C      0.010890000000     0.993710000000     0.643790000000     0.363879   
C11      C      0.991720000000     0.853880000000     0.493880000000     0.372952   
C12      C      0.863470000000     0.009970000000     0.506300000000     0.371415   
C13      C      0.001880000000     0.355980000000     0.002270000000     0.372786   
C14      C      0.849150000000     0.488010000000     0.004420000000     0.368679   
C15      C      0.990050000000     0.505400000000     0.142500000000     0.381301   
C16      C      0.985200000000     0.640790000000     0.990440000000     0.3684     
C17      C      0.993150000000     0.491460000000     0.855920000000     0.360576   
C18      C      0.136610000000     0.506390000000     0.006460000000     0.365167   
C19      C      0.005440000000     0.356190000000     0.496770000000     0.364472   
C20      C      0.135540000000     0.507810000000     0.498470000000     0.379197   
C21      C      0.991560000000     0.493570000000     0.354450000000     0.366146   
C22      C      0.990600000000     0.639950000000     0.498380000000     0.362554   
C23      C      0.987750000000     0.497170000000     0.641580000000     0.380372   
C24      C      0.848420000000     0.492900000000     0.493910000000     0.375749   
C25      C      0.503190000000     0.134070000000     0.008020000000     0.36447    
C26      C      0.353540000000     0.990860000000     0.998920000000     0.361277   
C27      C      0.492280000000     0.997980000000     0.853310000000     0.37014    
C28      C      0.498390000000     0.848510000000     0.991950000000     0.363974   
C29      C      0.503920000000     0.986830000000     0.139070000000     0.377097   
C30      C      0.640420000000     0.986420000000     0.982870000000     0.365921   
C31      C      0.362380000000     0.997830000000     0.494320000000     0.363582   
C32      C      0.505820000000     0.003570000000     0.351110000000     0.365017   
C33      C      0.505070000000     0.143430000000     0.494370000000     0.372458   
C34      C      0.650170000000     0.000760000000     0.498020000000     0.363052   
C35      C      0.512140000000     0.856420000000     0.488920000000     0.371907   
C36      C      0.502510000000     0.998100000000     0.637220000000     0.368006   
C37      C      0.349450000000     0.489640000000     0.003350000000     0.372204   
C38      C      0.494770000000     0.346680000000     0.994280000000     0.371401   
C39      C      0.489950000000     0.489130000000     0.854530000000     0.372611   
C40      C      0.635850000000     0.494280000000     0.998870000000     0.373303   
C41      C      0.496190000000     0.490440000000     0.141100000000     0.366724   
C42      C      0.489900000000     0.634050000000     0.996930000000     0.373748   
C43      C      0.349670000000     0.509260000000     0.501100000000     0.366116   
C44      C      0.484290000000     0.356070000000     0.492930000000     0.364591   
C45      C      0.487470000000     0.501230000000     0.353860000000     0.379909   
C46      C      0.634060000000     0.490880000000     0.497190000000     0.365495   
C47      C      0.490990000000     0.498750000000     0.640760000000     0.363968   
C48      C      0.497720000000     0.643600000000     0.501100000000     0.36605    
C49      C      0.533840000000     0.517330000000     0.723760000000    -0.0139795  
C50      C      0.438190000000     0.500500000000     0.719770000000    -0.0377261  
C51      C      0.537440000000     0.484960000000     0.773000000000    -0.0110901  
C52      C      0.441090000000     0.473200000000     0.773000000000     0.0918823  
C53      C      0.499490000000     0.443840000000     0.224190000000    -0.0141319  
C54      C      0.513580000000     0.540120000000     0.220280000000    -0.038675   
C55      C      0.471700000000     0.450300000000     0.276020000000    -0.0109098  
C56      C      0.480560000000     0.547150000000     0.269490000000     0.0956602  
C57      C      0.459850000000     0.727320000000     0.473960000000    -0.0141156  
C58      C      0.529540000000     0.724550000000     0.541210000000    -0.0375309  
C59      C      0.485780000000     0.773940000000     0.448580000000    -0.01396    
C60      C      0.555250000000     0.772240000000     0.515830000000     0.0915222  
C61      C      0.448650000000     0.271230000000     0.520480000000    -0.0142706  
C62      C      0.505840000000     0.277370000000     0.442990000000    -0.038539   
C63      C      0.478550000000     0.223580000000     0.538770000000    -0.0137912  
C64      C      0.536870000000     0.229630000000     0.461000000000     0.0922728  
C65      C      0.472100000000     0.767040000000     0.948700000000    -0.0151645  
C66      C      0.541730000000     0.766920000000     0.015640000000    -0.0387631  
C67      C      0.450230000000     0.716730000000     0.970900000000    -0.0135452  
C68      C      0.519300000000     0.717080000000     0.039390000000     0.092206   
C69      C      0.475250000000     0.216920000000     0.048060000000    -0.0143012  
C70      C      0.550700000000     0.214830000000     0.988150000000    -0.0385106  
C71      C      0.453840000000     0.264170000000     0.019520000000    -0.0142563  
C72      C      0.529620000000     0.262330000000     0.958560000000     0.0922343  
C73      C      0.488110000000     0.045740000000     0.717920000000    -0.0121781  
C74      C      0.515330000000     0.950890000000     0.718690000000    -0.0320673  
C75      C      0.509820000000     0.045040000000     0.772860000000    -0.00674643 
C76      C      0.488800000000     0.948470000000     0.772410000000     0.0931772  
C77      C      0.455000000000     0.005890000000     0.270540000000    -0.013862   
C78      C      0.550980000000     0.020320000000     0.268780000000    -0.0370954  
C79      C      0.458660000000     0.974010000000     0.220960000000    -0.011467   
C80      C      0.555530000000     0.984900000000     0.220690000000     0.0938357  
C81      C      0.716450000000     0.513560000000     0.539720000000    -0.0140518  
C82      C      0.713390000000     0.442960000000     0.473770000000    -0.0379288  
C83      C      0.765970000000     0.534370000000     0.515920000000    -0.0123176  
C84      C      0.766130000000     0.461020000000     0.451800000000     0.092506   
C85      C      0.268220000000     0.488180000000     0.545910000000    -0.0130723  
C86      C      0.271610000000     0.560890000000     0.483070000000    -0.0394427  
C87      C      0.217800000000     0.469480000000     0.522840000000    -0.0139157  
C88      C      0.217410000000     0.547430000000     0.462520000000     0.0899036  
C89      C      0.767420000000     0.443420000000     0.981570000000    -0.0141151  
C90      C      0.768960000000     0.509700000000     0.051630000000    -0.0402139  
C91      C      0.718240000000     0.467480000000     0.959430000000    -0.0136056  
C92      C      0.719150000000     0.534610000000     0.030190000000     0.0943192  
C93      C      0.220530000000     0.544110000000     0.979550000000    -0.013165   
C94      C      0.215490000000     0.487120000000     0.057210000000    -0.0384136  
C95      C      0.268140000000     0.514750000000     0.960830000000    -0.0147711  
C96      C      0.264720000000     0.457760000000     0.040000000000     0.092243   
C97      C      0.041410000000     0.491590000000     0.773570000000    -0.0144985  
C98      C      0.948150000000     0.465350000000     0.776030000000    -0.0401222  
C99      C      0.032570000000     0.517380000000     0.721100000000    -0.0121653  
C100     C      0.937950000000     0.494090000000     0.724970000000     0.092288   
C101     C      0.041140000000     0.489820000000     0.273510000000    -0.0141971  
C102     C      0.944750000000     0.476810000000     0.273370000000    -0.0374868  
C103     C      0.037310000000     0.519690000000     0.222730000000    -0.00990943 
C104     C      0.940190000000     0.511150000000     0.224640000000     0.0957275  
C105     C      0.966250000000     0.722830000000     0.540240000000    -0.0150012  
C106     C      0.034120000000     0.720300000000     0.471030000000    -0.0403704  
C107     C      0.945510000000     0.773600000000     0.517670000000    -0.0139248  
C108     C      0.011600000000     0.769970000000     0.447180000000     0.094031   
C109     C      0.985870000000     0.272730000000     0.454430000000    -0.0139692  
C110     C      0.057180000000     0.278810000000     0.519130000000    -0.0370778  
C111     C      0.967250000000     0.222640000000     0.478930000000    -0.0142445  
C112     C      0.041760000000     0.225440000000     0.541880000000     0.0913994  
C113     C      0.733180000000     0.963580000000     0.528600000000    -0.0158013  
C114     C      0.731770000000     0.030140000000     0.457920000000    -0.0426492  
C115     C      0.781680000000     0.989320000000     0.550990000000    -0.0150227  
C116     C      0.778660000000     0.056700000000     0.482550000000     0.093223   
C117     C      0.279170000000     0.036300000000     0.521730000000    -0.0139463  
C118     C      0.281690000000     0.969000000000     0.452010000000    -0.0385793  
C119     C      0.230370000000     0.011490000000     0.543810000000    -0.0138835  
C120     C      0.231450000000     0.944680000000     0.473600000000     0.0921475  
C121     C      0.038900000000     0.770130000000     0.975910000000    -0.015389   
C122     C      0.968370000000     0.772030000000     0.042140000000    -0.0400454  
C123     C      0.013660000000     0.722950000000     0.950330000000    -0.0131143  
C124     C      0.942190000000     0.725530000000     0.015440000000     0.0928944  
C125     C      0.954170000000     0.225490000000     0.979940000000    -0.0141215  
C126     C      0.016200000000     0.222320000000     0.054080000000    -0.0379549  
C127     C      0.981190000000     0.273550000000     0.959130000000    -0.0138257  
C128     C      0.042260000000     0.272640000000     0.034620000000     0.0926305  
C129     C      0.723120000000     0.943280000000     0.004510000000    -0.0130439  
C130     C      0.720190000000     0.009960000000     0.935100000000    -0.0364497  
C131     C      0.770470000000     0.968840000000     0.028380000000    -0.0144995  
C132     C      0.770710000000     0.034680000000     0.956060000000     0.0906303  
C133     C      0.269630000000     0.953950000000     0.970990000000    -0.0148252  
C134     C      0.273990000000     0.015000000000     0.045970000000    -0.0387513  
C135     C      0.219780000000     0.979990000000     0.952730000000    -0.0138212  
C136     C      0.223410000000     0.041260000000     0.027910000000     0.0923102  
C137     C      0.011830000000     0.943960000000     0.725330000000    -0.0134378  
C138     C      0.032260000000     0.038920000000     0.724820000000    -0.0373067  
C139     C      0.983410000000     0.950390000000     0.776900000000    -0.0124311  
C140     C      0.998590000000     0.046800000000     0.773480000000     0.0938175  
C141     C      0.010320000000     0.047800000000     0.274990000000    -0.0136228  
C142     C      0.021290000000     0.951080000000     0.275400000000    -0.0382968  
C143     C      0.981000000000     0.044160000000     0.223700000000    -0.0109985  
C144     C      0.986800000000     0.946870000000     0.226710000000     0.0956136  
H1       H      0.545280000000     0.444080000000     0.762230000000     0.0541721  
H2       H      0.570310000000     0.512780000000     0.701470000000     0.0526789  
H3       H      0.444750000000     0.431140000000     0.764370000000     0.0418215  
H4       H      0.408020000000     0.481520000000     0.695760000000     0.0724881  
H5       H      0.570450000000     0.499250000000     0.796580000000     0.0514681  
H6       H      0.529690000000     0.558710000000     0.734620000000     0.054931   
H7       H      0.426020000000     0.541330000000     0.725050000000     0.0719606  
H8       H      0.429450000000     0.449430000000     0.268430000000     0.0531163  
H9       H      0.481980000000     0.411010000000     0.202670000000     0.0580558  
H10      H      0.439620000000     0.551360000000     0.256930000000     0.0456011  
H11      H      0.508260000000     0.574340000000     0.194770000000     0.0833223  
H12      H      0.480660000000     0.416600000000     0.301220000000     0.0539731  
H13      H      0.540310000000     0.433340000000     0.232340000000     0.0579661  
H14      H      0.555120000000     0.537710000000     0.230840000000     0.0836739  
H15      H      0.512090000000     0.759540000000     0.417780000000     0.0571833  
H16      H      0.440030000000     0.704510000000     0.443420000000     0.0615509  
H17      H      0.582670000000     0.756640000000     0.486460000000     0.0440448  
H18      H      0.559970000000     0.699570000000     0.558360000000     0.0763812  
H19      H      0.455440000000     0.797530000000     0.429470000000     0.0595354  
H20      H      0.429780000000     0.741740000000     0.501070000000     0.0544022  
H21      H      0.503780000000     0.737320000000     0.573140000000     0.0725108  
H22      H      0.508480000000     0.236640000000     0.566710000000     0.0498295  
H23      H      0.434140000000     0.292590000000     0.554850000000     0.0544473  
H24      H      0.569480000000     0.244460000000     0.484880000000     0.0439345  
H25      H      0.531630000000     0.303360000000     0.420590000000     0.078624   
H26      H      0.451450000000     0.198310000000     0.560440000000     0.055685   
H27      H      0.414710000000     0.257980000000     0.497710000000     0.0524338  
H28      H      0.474540000000     0.264790000000     0.416410000000     0.071128   
H29      H      0.418280000000     0.726740000000     0.997840000000     0.0507073  
H30      H      0.439720000000     0.790030000000     0.932380000000     0.0574383  
H31      H      0.490940000000     0.729600000000     0.069310000000     0.0442597  
H32      H      0.560090000000     0.790170000000     0.046760000000     0.0798442  
H33      H      0.433170000000     0.694190000000     0.938530000000     0.0568197  
H34      H      0.498530000000     0.757090000000     0.916300000000     0.0536386  
H35      H      0.572310000000     0.756860000000     0.987200000000     0.0728518  
H36      H      0.425690000000     0.250320000000     0.990130000000     0.0528349  
H37      H      0.442480000000     0.194000000000     0.063700000000     0.0580963  
H38      H      0.505150000000     0.246930000000     0.926630000000     0.0426237  
H39      H      0.573260000000     0.190200000000     0.961170000000     0.0791432  
H40      H      0.431960000000     0.287980000000     0.047770000000     0.0605179  
H41      H      0.498730000000     0.230720000000     0.081310000000     0.0557487  
H42      H      0.577620000000     0.228030000000     0.018920000000     0.0741658  
H43      H      0.552690000000     0.046350000000     0.771060000000     0.0518894  
H44      H      0.503740000000     0.080080000000     0.697240000000     0.0498414  
H45      H      0.509870000000     0.918210000000     0.794800000000     0.0400311  
H46      H      0.557860000000     0.951030000000     0.724570000000     0.0578246  
H47      H      0.496600000000     0.080320000000     0.793630000000     0.0527688  
H48      H      0.445530000000     0.050540000000     0.719220000000     0.0674341  
H49      H      0.506270000000     0.915490000000     0.696000000000     0.0781291  
H50      H      0.459310000000     0.932480000000     0.232030000000     0.0523629  
H51      H      0.422920000000     0.990820000000     0.294820000000     0.0561728  
H52      H      0.561700000000     0.944760000000     0.235020000000     0.0452554  
H53      H      0.586470000000     0.016500000000     0.292720000000     0.0778029  
H54      H      0.423260000000     0.980290000000     0.197390000000     0.0540565  
H55      H      0.444920000000     0.046210000000     0.259590000000     0.055757   
H56      H      0.547540000000     0.061330000000     0.256420000000     0.0790823  
H57      H      0.755630000000     0.564220000000     0.486740000000     0.0534854  
H58      H      0.694730000000     0.546490000000     0.556710000000     0.0571076  
H59      H      0.757070000000     0.487070000000     0.418690000000     0.0456332  
H60      H      0.689830000000     0.426780000000     0.441690000000     0.07947    
H61      H      0.788180000000     0.553880000000     0.547100000000     0.0600752  
H62      H      0.726830000000     0.486770000000     0.571730000000     0.0568473  
H63      H      0.719510000000     0.411360000000     0.502230000000     0.0750594  
H64      H      0.226630000000     0.439830000000     0.492960000000     0.0515702  
H65      H      0.289450000000     0.454300000000     0.561610000000     0.0558631  
H66      H      0.223370000000     0.526370000000     0.425380000000     0.0435109  
H67      H      0.294380000000     0.577900000000     0.450800000000     0.0705861  
H68      H      0.195900000000     0.449810000000     0.554150000000     0.0571366  
H69      H      0.259410000000     0.514580000000     0.578710000000     0.0531103  
H70      H      0.267960000000     0.591340000000     0.513270000000     0.0686419  
H71      H      0.729490000000     0.494720000000     0.928130000000     0.0515093  
H72      H      0.790020000000     0.426130000000     0.949370000000     0.0573794  
H73      H      0.731710000000     0.565500000000     0.002900000000     0.0464432  
H74      H      0.792850000000     0.539940000000     0.070560000000     0.0888861  
H75      H      0.695270000000     0.436060000000     0.941260000000     0.0620952  
H76      H      0.756200000000     0.411750000000     0.008390000000     0.0583961  
H77      H      0.758760000000     0.480880000000     0.081850000000     0.0809203  
H78      H      0.255150000000     0.484100000000     0.933620000000     0.0555071  
H79      H      0.198910000000     0.558660000000     0.945380000000     0.0541808  
H80      H      0.251410000000     0.423510000000     0.017540000000     0.0451844  
H81      H      0.190150000000     0.460310000000     0.079170000000     0.0803795  
H82      H      0.292400000000     0.542070000000     0.938270000000     0.0614065  
H83      H      0.233580000000     0.578040000000     0.002480000000     0.0518834  
H84      H      0.226370000000     0.518890000000     0.084010000000     0.0722448  
H85      H      0.026970000000     0.559460000000     0.727840000000     0.0482433  
H86      H      0.071520000000     0.513440000000     0.795050000000     0.0537252  
H87      H      0.925840000000     0.534100000000     0.735370000000     0.0414256  
H88      H      0.912620000000     0.467380000000     0.800180000000     0.0676148  
H89      H      0.068090000000     0.513090000000     0.697230000000     0.051605   
H90      H      0.056810000000     0.452100000000     0.766540000000     0.054058   
H91      H      0.955940000000     0.423920000000     0.767550000000     0.0724842  
H92      H      0.037930000000     0.561650000000     0.232010000000     0.0560528  
H93      H      0.073500000000     0.505640000000     0.296950000000     0.0591802  
H94      H      0.935470000000     0.551810000000     0.238040000000     0.0488953  
H95      H      0.909760000000     0.481900000000     0.297830000000     0.0789513  
H96      H      0.071980000000     0.511450000000     0.198670000000     0.0553863  
H97      H      0.050890000000     0.449020000000     0.264140000000     0.0573391  
H98      H      0.947270000000     0.435460000000     0.261950000000     0.0792961  
H99      H      0.913010000000     0.764160000000     0.491200000000     0.0515255  
H100     H      0.933440000000     0.700840000000     0.557080000000     0.0548675  
H101     H      0.980750000000     0.757180000000     0.419930000000     0.0450417  
H102     H      0.050910000000     0.696200000000     0.439680000000     0.0873063  
H103     H      0.929480000000     0.797010000000     0.549930000000     0.0545629  
H104     H      0.993300000000     0.732350000000     0.572260000000     0.0513233  
H105     H      0.065950000000     0.730490000000     0.498030000000     0.077574   
H106     H      0.937320000000     0.232200000000     0.508260000000     0.0600608  
H107     H      0.952030000000     0.293150000000     0.437650000000     0.0636167  
H108     H      0.016730000000     0.233530000000     0.575970000000     0.0459225  
H109     H      0.073120000000     0.303190000000     0.550720000000     0.0764875  
H110     H      0.948170000000     0.199420000000     0.448230000000     0.06599    
H111     H      0.012650000000     0.263040000000     0.422220000000     0.0554007  
H112     H      0.088390000000     0.273730000000     0.490080000000     0.0720352  
H113     H      0.769230000000     0.017290000000     0.581190000000     0.0520702  
H114     H      0.710120000000     0.947280000000     0.561000000000     0.0588885  
H115     H      0.762360000000     0.083410000000     0.512190000000     0.0422402  
H116     H      0.707420000000     0.060040000000     0.438950000000     0.0771999  
H117     H      0.804770000000     0.959000000000     0.570730000000     0.0566929  
H118     H      0.745540000000     0.930840000000     0.503650000000     0.0553236  
H119     H      0.745340000000     0.003150000000     0.427330000000     0.0735362  
H120     H      0.242150000000     0.983460000000     0.574220000000     0.0528469  
H121     H      0.301570000000     0.053440000000     0.554150000000     0.0575949  
H122     H      0.243790000000     0.914470000000     0.501740000000     0.0441305  
H123     H      0.305920000000     0.937850000000     0.435090000000     0.077563   
H124     H      0.207430000000     0.042210000000     0.563130000000     0.0615784  
H125     H      0.267510000000     0.068280000000     0.495460000000     0.0561431  
H126     H      0.272080000000     0.996300000000     0.420240000000     0.0735289  
H127     H      0.988570000000     0.736940000000     0.918360000000     0.0479954  
H128     H      0.058660000000     0.793270000000     0.945590000000     0.0539712  
H129     H      0.916310000000     0.742180000000     0.985240000000     0.0422933  
H130     H      0.938290000000     0.796720000000     0.060270000000     0.0837433  
H131     H      0.044600000000     0.699020000000     0.932660000000     0.0536593  
H132     H      0.068840000000     0.756110000000     0.003360000000     0.0536564  
H133     H      0.994040000000     0.757880000000     0.073560000000     0.078538   
H134     H      0.011310000000     0.260960000000     0.931170000000     0.0563936  
H135     H      0.938270000000     0.203270000000     0.946770000000     0.063163   
H136     H      0.074870000000     0.260280000000     0.009370000000     0.0452963  
H137     H      0.045670000000     0.197850000000     0.073470000000     0.0807146  
H138     H      0.952380000000     0.296570000000     0.937160000000     0.0592577  
H139     H      0.921230000000     0.238000000000     0.004530000000     0.056318   
H140     H      0.986420000000     0.231970000000     0.083480000000     0.0735363  
H141     H      0.757270000000     0.996170000000     0.058840000000     0.0583798  
H142     H      0.700770000000     0.923960000000     0.035700000000     0.0619266  
H143     H      0.758600000000     0.067190000000     0.981580000000     0.0447527  
H144     H      0.695850000000     0.040610000000     0.917430000000     0.0762994  
H145     H      0.793480000000     0.938230000000     0.047800000000     0.0615774  
H146     H      0.736430000000     0.912900000000     0.977140000000     0.0539412  
H147     H      0.729640000000     0.981820000000     0.904040000000     0.0708418  
H148     H      0.230180000000     0.010000000000     0.923740000000     0.0534788  
H149     H      0.291090000000     0.939850000000     0.936520000000     0.0569196  
H150     H      0.235140000000     0.073650000000     0.002040000000     0.0437037  
H151     H      0.298670000000     0.044380000000     0.065240000000     0.077784   
H152     H      0.196130000000     0.950470000000     0.932410000000     0.0569568  
H153     H      0.259160000000     0.919750000000     0.994840000000     0.05297    
H154     H      0.264960000000     0.984860000000     0.075230000000     0.0734093  
H155     H      0.941320000000     0.951840000000     0.768570000000     0.0515655  
H156     H      0.992980000000     0.912820000000     0.702470000000     0.0517763  
H157     H      0.958410000000     0.054470000000     0.760130000000     0.0471038  
H158     H      0.030240000000     0.074260000000     0.700390000000     0.0790198  
H159     H      0.990200000000     0.915570000000     0.801230000000     0.0508176  
H160     H      0.051830000000     0.930940000000     0.733910000000     0.0504359  
H161     H      0.073200000000     0.032940000000     0.736290000000     0.074944   
H162     H      0.939010000000     0.046320000000     0.232420000000     0.0539381  
H163     H      0.994600000000     0.080470000000     0.298090000000     0.057958   
H164     H      0.946090000000     0.943420000000     0.240180000000     0.046261   
H165     H      0.015450000000     0.916300000000     0.300030000000     0.0831086  
H166     H      0.990600000000     0.078320000000     0.199370000000     0.0552168  
H167     H      0.051260000000     0.057150000000     0.266090000000     0.0586587  
H168     H      0.062610000000     0.952490000000     0.263870000000     0.0835241  
N1       N      0.488500000000     0.487800000000     0.801720000000    -0.161251   
N2       N      0.488610000000     0.501300000000     0.693450000000    -0.152478   
N3       N      0.393630000000     0.480360000000     0.803930000000    -0.0233388  
N4       N      0.484290000000     0.499830000000     0.301250000000    -0.16213    
N5       N      0.499100000000     0.491910000000     0.193790000000    -0.149242   
N6       N      0.495350000000     0.593910000000     0.298810000000    -0.0226119  
N7       N      0.516280000000     0.803350000000     0.486830000000    -0.15981    
N8       N      0.497710000000     0.696520000000     0.503380000000    -0.151417   
N9       N      0.585600000000     0.802560000000     0.553570000000    -0.0199085  
N10      N      0.504630000000     0.196650000000     0.495360000000    -0.160461   
N11      N      0.481530000000     0.303500000000     0.487390000000    -0.152531   
N12      N      0.558920000000     0.201130000000     0.416640000000    -0.0194522  
N13      N      0.489690000000     0.687220000000     0.999790000000    -0.160344   
N14      N      0.501390000000     0.795800000000     0.988160000000    -0.151928   
N15      N      0.559810000000     0.686550000000     0.065680000000    -0.0183436  
N16      N      0.495130000000     0.293430000000     0.992660000000    -0.159524   
N17      N      0.508300000000     0.186520000000     0.013320000000    -0.151169   
N18      N      0.571780000000     0.292840000000     0.935080000000    -0.0199289  
N19      N      0.493830000000     0.997970000000     0.800560000000    -0.162073   
N20      N      0.501210000000     0.997930000000     0.689910000000    -0.146076   
N21      N      0.434180000000     0.932450000000     0.770200000000    -0.0199115  
N22      N      0.506170000000     0.985550000000     0.191800000000    -0.161536   
N23      N      0.504520000000     0.006690000000     0.298420000000    -0.150812   
N24      N      0.599860000000     0.999260000000     0.187690000000    -0.0215467  
N25      N      0.795380000000     0.492800000000     0.490110000000    -0.158822   
N26      N      0.686490000000     0.485140000000     0.500670000000    -0.151507   
N27      N      0.796210000000     0.416990000000     0.431380000000    -0.0194231  
N28      N      0.188460000000     0.511960000000     0.498210000000    -0.158083   
N29      N      0.297660000000     0.516380000000     0.506600000000    -0.152721   
N30      N      0.191900000000     0.597530000000     0.451860000000    -0.0276971  
N31      N      0.688970000000     0.496450000000     0.999250000000    -0.159191   
N32      N      0.796950000000     0.482390000000     0.010390000000    -0.150601   
N33      N      0.688740000000     0.559320000000     0.071780000000    -0.0174733  
N34      N      0.296270000000     0.489940000000     0.004180000000    -0.158924   
N35      N      0.188980000000     0.510510000000     0.012570000000    -0.152235   
N36      N      0.294390000000     0.438860000000     0.085010000000    -0.0199094  
N37      N      0.986480000000     0.497180000000     0.694360000000    -0.158924   
N38      N      0.993130000000     0.487020000000     0.803150000000    -0.151295   
N39      N      0.894840000000     0.467510000000     0.698480000000    -0.0306715  
N40      N      0.988970000000     0.508150000000     0.195070000000    -0.16117    
N41      N      0.991900000000     0.490400000000     0.301860000000    -0.151172   
N42      N      0.894920000000     0.497290000000     0.192710000000    -0.0213363  
N43      N      0.985740000000     0.801310000000     0.488010000000    -0.161186   
N44      N      0.994320000000     0.692710000000     0.500850000000    -0.150478   
N45      N      0.050560000000     0.798750000000     0.416850000000    -0.0199721  
N46      N      0.009930000000     0.194810000000     0.504810000000    -0.158543   
N47      N      0.013500000000     0.304000000000     0.492910000000    -0.15067    
N48      N      0.087560000000     0.196870000000     0.560410000000    -0.0188577  
N49      N      0.810830000000     0.017490000000     0.510490000000    -0.156905   
N50      N      0.703100000000     0.000180000000     0.496970000000    -0.150335   
N51      N      0.804450000000     0.089320000000     0.443490000000    -0.0273487  
N52      N      0.201130000000     0.983540000000     0.503380000000    -0.158441   
N53      N      0.309480000000     0.998380000000     0.492110000000    -0.151368   
N54      N      0.201300000000     0.918940000000     0.432470000000    -0.0171999  
N55      N      0.981520000000     0.693880000000     0.987670000000    -0.16062    
N56      N      0.000460000000     0.800570000000     0.004850000000    -0.150552   
N57      N      0.909690000000     0.695630000000     0.051710000000    -0.0201034  
N58      N      0.006260000000     0.302920000000     0.001350000000    -0.159391   
N59      N      0.990170000000     0.194930000000     0.011510000000    -0.151046   
N60      N      0.064080000000     0.302960000000     0.077850000000    -0.0197581  
N61      N      0.800440000000     0.997950000000     0.989310000000    -0.158381   
N62      N      0.692690000000     0.981830000000     0.976040000000    -0.15183    
N63      N      0.801940000000     0.056610000000     0.913560000000    -0.0187374  
N64      N      0.191920000000     0.005150000000     0.995930000000    -0.158493   
N65      N      0.300710000000     0.989510000000     0.002640000000    -0.151123   
N66      N      0.194690000000     0.063620000000     0.071950000000    -0.0193604  
N67      N      0.997860000000     0.998430000000     0.803990000000    -0.161109   
N68      N      0.014750000000     0.992900000000     0.696490000000    -0.151885   
N69      N      0.016070000000     0.091450000000     0.804560000000    -0.0208186  
N70      N      0.991070000000     0.995150000000     0.196440000000    -0.160707   
N71      N      0.009050000000     0.998770000000     0.303820000000    -0.148929   
N72      N      0.999380000000     0.900830000000     0.195310000000    -0.0228964  
O1       O      0.996100000000     0.997850000000     0.000250000000    -0.368198   
O2       O      0.964440000000     0.963980000000     0.118260000000    -0.28378    
O3       O      0.113490000000     0.029290000000     0.030440000000    -0.274542   
O4       O      0.030460000000     0.877660000000     0.973230000000    -0.296644   
O5       O      0.021500000000     0.027930000000     0.120690000000    -0.289581   
O6       O      0.965590000000     0.878170000000     0.028720000000    -0.292054   
O7       O      0.114760000000     0.972040000000     0.967010000000    -0.294569   
O8       O      0.974870000000     0.034670000000     0.881030000000    -0.28065    
O9       O      0.023590000000     0.116880000000     0.035830000000    -0.294253   
O10      O      0.020670000000     0.962200000000     0.881030000000    -0.297169   
O11      O      0.965160000000     0.118950000000     0.973770000000    -0.29152    
O12      O      0.880210000000     0.028130000000     0.964380000000    -0.279393   
O13      O      0.876170000000     0.967790000000     0.024680000000    -0.295466   
O14      O      0.005250000000     0.997280000000     0.500630000000    -0.369781   
O15      O      0.980780000000     0.032960000000     0.380350000000    -0.289381   
O16      O      0.121490000000     0.958760000000     0.472320000000    -0.273564   
O17      O      0.040580000000     0.115710000000     0.531680000000    -0.279957   
O18      O      0.032370000000     0.964670000000     0.381580000000    -0.2871     
O19      O      0.979910000000     0.118120000000     0.472200000000    -0.29385    
O20      O      0.125480000000     0.021120000000     0.530420000000    -0.29334    
O21      O      0.982780000000     0.960560000000     0.620490000000    -0.2961     
O22      O      0.025090000000     0.877930000000     0.467240000000    -0.279351   
O23      O      0.035990000000     0.027650000000     0.618510000000    -0.295487   
O24      O      0.963160000000     0.878780000000     0.525420000000    -0.298712   
O25      O      0.886380000000     0.979460000000     0.537730000000    -0.296577   
O26      O      0.889550000000     0.033770000000     0.472140000000    -0.270229   
O27      O      0.993080000000     0.498490000000     0.999220000000    -0.3691     
O28      O      0.028720000000     0.382800000000     0.033650000000    -0.276944   
O29      O      0.874090000000     0.457810000000     0.974600000000    -0.296728   
O30      O      0.957940000000     0.531670000000     0.116180000000    -0.281625   
O31      O      0.971180000000     0.378350000000     0.970830000000    -0.298636   
O32      O      0.023470000000     0.476800000000     0.120570000000    -0.291825   
O33      O      0.872760000000     0.522500000000     0.030190000000    -0.2911     
O34      O      0.017600000000     0.616730000000     0.961890000000    -0.296874   
O35      O      0.959290000000     0.467050000000     0.882080000000    -0.298237   
O36      O      0.956390000000     0.615650000000     0.021360000000    -0.278641   
O37      O      0.027520000000     0.518780000000     0.878490000000    -0.295324   
O38      O      0.113220000000     0.533350000000     0.972380000000    -0.296543   
O39      O      0.111400000000     0.476400000000     0.036050000000    -0.297548   
O40      O      0.992170000000     0.497810000000     0.498190000000    -0.370882   
O41      O      0.971990000000     0.377880000000     0.467760000000    -0.291662   
O42      O      0.113320000000     0.478100000000     0.530820000000    -0.301989   
O43      O      0.024300000000     0.522200000000     0.377360000000    -0.29333    
O44      O      0.032870000000     0.382920000000     0.527850000000    -0.29446    
O45      O      0.959170000000     0.466890000000     0.380000000000    -0.295053   
O46      O      0.108740000000     0.532670000000     0.465980000000    -0.279651   
O47      O      0.961420000000     0.615770000000     0.529990000000    -0.296225   
O48      O      0.024120000000     0.473310000000     0.618520000000    -0.293568   
O49      O      0.018020000000     0.615330000000     0.465630000000    -0.289688   
O50      O      0.954110000000     0.522600000000     0.616230000000    -0.2807     
O51      O      0.870980000000     0.526620000000     0.521950000000    -0.29391    
O52      O      0.875120000000     0.460460000000     0.468550000000    -0.279266   
O53      O      0.497260000000     0.991390000000     0.996030000000    -0.368729   
O54      O      0.531860000000     0.110300000000     0.975880000000    -0.297718   
O55      O      0.379140000000     0.019910000000     0.029370000000    -0.297481   
O56      O      0.468520000000     0.961880000000     0.876900000000    -0.290671   
O57      O      0.470480000000     0.109300000000     0.035500000000    -0.292387   
O58      O      0.516910000000     0.032590000000     0.878210000000    -0.300012   
O59      O      0.376870000000     0.961790000000     0.966540000000    -0.293763   
O60      O      0.528480000000     0.872620000000     0.022710000000    -0.296313   
O61      O      0.467360000000     0.011450000000     0.117120000000    -0.295941   
O62      O      0.467170000000     0.873220000000     0.963080000000    -0.297886   
O63      O      0.538050000000     0.963220000000     0.112580000000    -0.284019   
O64      O      0.617730000000     0.958090000000     0.016040000000    -0.294376   
O65      O      0.614620000000     0.018200000000     0.955450000000    -0.295434   
O66      O      0.506180000000     0.999770000000     0.494240000000    -0.368527   
O67      O      0.386150000000     0.029110000000     0.524130000000    -0.294975   
O68      O      0.472150000000     0.976530000000     0.374770000000    -0.296037   
O69      O      0.536370000000     0.119000000000     0.465160000000    -0.278567   
O70      O      0.387570000000     0.967260000000     0.465050000000    -0.296588   
O71      O      0.474490000000     0.118520000000     0.523740000000    -0.301937   
O72      O      0.540240000000     0.028470000000     0.375990000000    -0.290516   
O73      O      0.625670000000     0.971310000000     0.529060000000    -0.292633   
O74      O      0.480460000000     0.880090000000     0.459290000000    -0.295166   
O75      O      0.625680000000     0.029820000000     0.466750000000    -0.295236   
O76      O      0.540020000000     0.882010000000     0.520130000000    -0.2811     
O77      O      0.529730000000     0.964640000000     0.613410000000    -0.292514   
O78      O      0.476900000000     0.032150000000     0.612590000000    -0.297615   
O79      O      0.492170000000     0.490080000000     0.997580000000    -0.370984   
O80      O      0.373090000000     0.519350000000     0.972020000000    -0.295802   
O81      O      0.464490000000     0.369860000000     0.025480000000    -0.29547    
O82      O      0.526030000000     0.465470000000     0.878270000000    -0.296646   
O83      O      0.375010000000     0.459260000000     0.032680000000    -0.276765   
O84      O      0.455860000000     0.514500000000     0.879310000000    -0.280125   
O85      O      0.524250000000     0.372880000000     0.964750000000    -0.277633   
O86      O      0.609510000000     0.524180000000     0.027620000000    -0.276075   
O87      O      0.470630000000     0.454820000000     0.118530000000    -0.289366   
O88      O      0.612860000000     0.462800000000     0.968770000000    -0.294634   
O89      O      0.519720000000     0.524780000000     0.115040000000    -0.290659   
O90      O      0.518860000000     0.608320000000     0.026800000000    -0.283569   
O91      O      0.460170000000     0.610340000000     0.965430000000    -0.295349   
O92      O      0.491500000000     0.499710000000     0.497460000000    -0.36855    
O93      O      0.375280000000     0.538760000000     0.471100000000    -0.298689   
O94      O      0.456110000000     0.379460000000     0.526070000000    -0.295777   
O95      O      0.514280000000     0.467240000000     0.377200000000    -0.296719   
O96      O      0.372420000000     0.475070000000     0.528190000000    -0.300832   
O97      O      0.462640000000     0.535560000000     0.378910000000    -0.286744   
O98      O      0.514240000000     0.381470000000     0.463500000000    -0.301676   
O99      O      0.611280000000     0.522500000000     0.527230000000    -0.299979   
O100     O      0.457690000000     0.472140000000     0.616130000000    -0.297836   
O101     O      0.608230000000     0.463110000000     0.465630000000    -0.293494   
O102     O      0.525360000000     0.524590000000     0.616790000000    -0.298503   
O103     O      0.527260000000     0.617440000000     0.530710000000    -0.295236   
O104     O      0.467170000000     0.620800000000     0.470110000000    -0.295599   
O105     O      0.381640000000     0.530370000000     0.806770000000    -0.0913802  
O106     O      0.354560000000     0.456450000000     0.780500000000    -0.103643   
O107     O      0.545740000000     0.593050000000     0.309150000000    -0.0896131  
O108     O      0.486010000000     0.635660000000     0.270160000000    -0.0934367  
O109     O      0.557660000000     0.811630000000     0.595930000000    -0.0907762  
O110     O      0.626800000000     0.775320000000     0.567940000000    -0.101784   
O111     O      0.521950000000     0.189690000000     0.382650000000    -0.0920713  
O112     O      0.593410000000     0.230830000000     0.392620000000    -0.0929888  
O113     O      0.599570000000     0.678730000000     0.033880000000    -0.081081   
O114     O      0.577300000000     0.712700000000     0.106460000000    -0.0867342  
O115     O      0.607270000000     0.304280000000     0.970630000000    -0.0913296  
O116     O      0.594780000000     0.264870000000     0.898480000000    -0.0983805  
O117     O      0.408220000000     0.961790000000     0.736880000000    -0.092115   
O118     O      0.431370000000     0.883850000000     0.753450000000    -0.0979494  
O119     O      0.596890000000     0.049030000000     0.174790000000    -0.0929927  
O120     O      0.643520000000     0.992570000000     0.214070000000    -0.0952098  
O121     O      0.801820000000     0.381000000000     0.467840000000    -0.0856261  
O122     O      0.770850000000     0.395540000000     0.392020000000    -0.0906687  
O123     O      0.165070000000     0.614160000000     0.492570000000    -0.0891394  
O124     O      0.160650000000     0.594270000000     0.411080000000    -0.0802064  
O125     O      0.680080000000     0.525710000000     0.109880000000    -0.0815608  
O126     O      0.715390000000     0.598680000000     0.091540000000    -0.0783723  
O127     O      0.305370000000     0.477980000000     0.116700000000    -0.0924318  
O128     O      0.266030000000     0.404950000000     0.111380000000    -0.0940341  
O129     O      0.911770000000     0.427100000000     0.671410000000    -0.0910283  
O130     O      0.870740000000     0.499680000000     0.666360000000    -0.0871863  
O131     O      0.896160000000     0.447130000000     0.181100000000    -0.0901495  
O132     O      0.851920000000     0.506020000000     0.219570000000    -0.0884501  
O133     O      0.094320000000     0.803150000000     0.443640000000    -0.0768958  
O134     O      0.061340000000     0.772530000000     0.373840000000    -0.0851524  
O135     O      0.121370000000     0.191050000000     0.521990000000    -0.0933063  
O136     O      0.110680000000     0.223700000000     0.597790000000    -0.097379   
O137     O      0.824980000000     0.061060000000     0.405630000000    -0.0832239  
O138     O      0.840960000000     0.118430000000     0.465090000000    -0.0841699  
O139     O      0.193540000000     0.951340000000     0.393140000000    -0.0851883  
O140     O      0.227830000000     0.878710000000     0.414380000000    -0.0885371  
O141     O      0.935340000000     0.686440000000     0.095470000000    -0.081577   
O142     O      0.868100000000     0.723360000000     0.063890000000    -0.0894594  
O143     O      0.028130000000     0.311120000000     0.113840000000    -0.086437   
O144     O      0.102200000000     0.276320000000     0.099870000000    -0.0912953  
O145     O      0.812140000000     0.020240000000     0.878510000000    -0.0929985  
O146     O      0.775400000000     0.093910000000     0.890030000000    -0.0965013  
O147     O      0.187630000000     0.028010000000     0.108540000000    -0.0859336  
O148     O      0.222110000000     0.101920000000     0.092690000000    -0.0944083  
O149     O      0.065910000000     0.086350000000     0.816240000000    -0.09485    
O150     O      0.010810000000     0.134590000000     0.776970000000    -0.0945204  
O151     O      0.049460000000     0.900700000000     0.183530000000    -0.0879512  
O152     O      0.989700000000     0.858350000000     0.222730000000    -0.0891047  
Zn1      Zn     0.951340000000     0.953480000000     0.041760000000     0.459001   
Zn2      Zn     0.037900000000     0.041260000000     0.045550000000     0.465011   
Zn3      Zn     0.039280000000     0.953520000000     0.956630000000     0.455465   
Zn4      Zn     0.955810000000     0.043750000000     0.956030000000     0.464216   
Zn5      Zn     0.965150000000     0.043510000000     0.456700000000     0.463976   
Zn6      Zn     0.045400000000     0.951400000000     0.457040000000     0.470198   
Zn7      Zn     0.050670000000     0.039510000000     0.543400000000     0.462612   
Zn8      Zn     0.960630000000     0.954860000000     0.545090000000     0.450337   
Zn9      Zn     0.037210000000     0.459290000000     0.045990000000     0.466804   
Zn10     Zn     0.950210000000     0.452230000000     0.957840000000     0.456897   
Zn11     Zn     0.946760000000     0.541180000000     0.040060000000     0.470828   
Zn12     Zn     0.037010000000     0.540640000000     0.953780000000     0.447364   
Zn13     Zn     0.950640000000     0.451810000000     0.455700000000     0.465899   
Zn14     Zn     0.039010000000     0.459190000000     0.543060000000     0.459659   
Zn15     Zn     0.033660000000     0.540580000000     0.452470000000     0.46791    
Zn16     Zn     0.945680000000     0.539700000000     0.540350000000     0.459393   
Zn17     Zn     0.538680000000     0.036970000000     0.952770000000     0.45905    
Zn18     Zn     0.454530000000     0.032300000000     0.042810000000     0.455726   
Zn19     Zn     0.453060000000     0.948640000000     0.952060000000     0.456435   
Zn20     Zn     0.543730000000     0.947930000000     0.036310000000     0.461094   
Zn21     Zn     0.462020000000     0.043400000000     0.537270000000     0.457921   
Zn22     Zn     0.462940000000     0.956490000000     0.449840000000     0.454814   
Zn23     Zn     0.550850000000     0.043100000000     0.451840000000     0.461334   
Zn24     Zn     0.549230000000     0.956260000000     0.538320000000     0.461828   
Zn25     Zn     0.447080000000     0.532950000000     0.954630000000     0.458786   
Zn26     Zn     0.451590000000     0.444750000000     0.042650000000     0.458374   
Zn27     Zn     0.537770000000     0.449100000000     0.953670000000     0.461226   
Zn28     Zn     0.533860000000     0.534950000000     0.040150000000     0.476263   
Zn29     Zn     0.450720000000     0.546920000000     0.455070000000     0.462229   
Zn30     Zn     0.446400000000     0.456650000000     0.540500000000     0.453412   
Zn31     Zn     0.531610000000     0.455180000000     0.452100000000     0.461734   
Zn32     Zn     0.537560000000     0.540260000000     0.541400000000     0.4567     


