data_structure

_audit_creation_method RASPA-1.0
_audit_creation_date 2023-5-19
_audit_author_name 'Poobodin Mano'

_cell_length_a    25.6794
_cell_length_b    25.7225
_cell_length_c    25.7573
_cell_angle_alpha 90
_cell_angle_beta  90
_cell_angle_gamma 90
_cell_volume      17013.7

_symmetry_cell_setting          triclinic
_symmetry_space_group_name_Hall 'P 1'
_symmetry_space_group_name_H-M  'P 1'
_symmetry_Int_Tables_number     1

_symmetry_equiv_pos_as_xyz 'x,y,z'

loop_
_atom_site_label
_atom_site_type_symbol
_atom_site_fract_x
_atom_site_fract_y
_atom_site_fract_z
_atom_site_charge
C1       C      0.000570000000     0.991460000000     0.159100000000     0.364348   
C2       C      0.140280000000     0.983810000000     0.016040000000     0.366019   
C3       C      0.989290000000     0.852220000000     0.011890000000     0.359377   
C4       C      0.994680000000     0.997090000000     0.869820000000     0.363323   
C5       C      0.003800000000     0.138430000000     0.016910000000     0.360821   
C6       C      0.853690000000     0.007660000000     0.021360000000     0.361799   
C7       C      0.854950000000     0.003960000000     0.501380000000     0.366883   
C8       C      0.999970000000     0.860970000000     0.500860000000     0.364281   
C9       C      0.003940000000     0.018550000000     0.366660000000     0.366145   
C10      C      0.147230000000     0.994610000000     0.511290000000     0.369282   
C11      C      0.996320000000     0.998400000000     0.652060000000     0.359465   
C12      C      0.009000000000     0.146130000000     0.517380000000     0.367469   
C13      C      0.010470000000     0.353030000000     0.009730000000     0.359416   
C14      C      0.996850000000     0.503840000000     0.139340000000     0.36179    
C15      C      0.140900000000     0.507300000000     0.983650000000     0.358393   
C16      C      0.984030000000     0.638040000000     0.003590000000     0.364264   
C17      C      0.856260000000     0.483270000000     0.985350000000     0.359471   
C18      C      0.001770000000     0.494940000000     0.850510000000     0.365803   
C19      C      0.008600000000     0.354640000000     0.489240000000     0.365124   
C20      C      0.996650000000     0.495090000000     0.353600000000     0.356334   
C21      C      0.864480000000     0.501080000000     0.516460000000     0.366791   
C22      C      0.003750000000     0.643710000000     0.491320000000     0.362761   
C23      C      0.152130000000     0.506040000000     0.487930000000     0.367314   
C24      C      0.021010000000     0.494890000000     0.637680000000     0.358332   
C25      C      0.353030000000     0.994010000000     0.999690000000     0.362482   
C26      C      0.492910000000     0.000970000000     0.142000000000     0.367585   
C27      C      0.506050000000     0.853980000000     0.996180000000     0.364451   
C28      C      0.638660000000     0.007850000000     0.008290000000     0.363477   
C29      C      0.489460000000     0.140220000000     0.986840000000     0.364208   
C30      C      0.499010000000     0.988800000000     0.854790000000     0.365342   
C31      C      0.354770000000     0.016140000000     0.490230000000     0.363295   
C32      C      0.496250000000     0.006240000000     0.358640000000     0.366356   
C33      C      0.512260000000     0.148980000000     0.512880000000     0.361858   
C34      C      0.640850000000     0.994360000000     0.489570000000     0.363041   
C35      C      0.490290000000     0.862680000000     0.510540000000     0.362391   
C36      C      0.495540000000     0.006600000000     0.643320000000     0.367951   
C37      C      0.357360000000     0.505090000000     0.987730000000     0.358984   
C38      C      0.493580000000     0.488370000000     0.139310000000     0.362858   
C39      C      0.499690000000     0.354170000000     0.988780000000     0.36841    
C40      C      0.645720000000     0.499400000000     0.003130000000     0.362896   
C41      C      0.503070000000     0.640000000000     0.997580000000     0.367628   
C42      C      0.509210000000     0.497850000000     0.849240000000     0.362938   
C43      C      0.365830000000     0.508380000000     0.499330000000     0.36205    
C44      C      0.515990000000     0.363910000000     0.506760000000     0.365058   
C45      C      0.505370000000     0.498120000000     0.354470000000     0.359603   
C46      C      0.654140000000     0.509900000000     0.499440000000     0.362327   
C47      C      0.500850000000     0.520230000000     0.639950000000     0.363681   
C48      C      0.511750000000     0.654120000000     0.487700000000     0.365736   
C49      C      0.553860000000     0.524380000000     0.767600000000    -0.0151968  
C50      C      0.474400000000     0.467240000000     0.764800000000    -0.0284581  
C51      C      0.530940000000     0.557480000000     0.723460000000    -0.0144769  
C52      C      0.450880000000     0.503310000000     0.723910000000     0.0339684  
C53      C      0.450220000000     0.512170000000     0.221970000000    -0.013505   
C54      C      0.513500000000     0.439090000000     0.219410000000    -0.0267439  
C55      C      0.475210000000     0.533280000000     0.271330000000    -0.0151596  
C56      C      0.537030000000     0.455930000000     0.271890000000     0.0309557  
C57      C      0.520150000000     0.778700000000     0.548240000000    -0.0143695  
C58      C      0.450380000000     0.780020000000     0.480460000000    -0.0277961  
C59      C      0.549730000000     0.737720000000     0.516610000000    -0.0147002  
C60      C      0.481040000000     0.740240000000     0.448270000000     0.0330578  
C61      C      0.493870000000     0.230880000000     0.560310000000    -0.0131081  
C62      C      0.568690000000     0.225790000000     0.499660000000    -0.0270031  
C63      C      0.476950000000     0.282800000000     0.537330000000    -0.0147564  
C64      C      0.556610000000     0.280150000000     0.477680000000     0.0331768  
C65      C      0.509480000000     0.773230000000     0.944630000000    -0.0137589  
C66      C      0.534650000000     0.773390000000     0.038920000000    -0.0269543  
C67      C      0.483980000000     0.719990000000     0.951580000000    -0.0126998  
C68      C      0.504830000000     0.722590000000     0.047520000000     0.0354005  
C69      C      0.488160000000     0.220930000000     0.934480000000    -0.0138529  
C70      C      0.465070000000     0.222120000000     0.029360000000    -0.0273114  
C71      C      0.514170000000     0.274310000000     0.940570000000    -0.0128966  
C72      C      0.497530000000     0.271160000000     0.037300000000     0.0359093  
C73      C      0.549090000000     0.987170000000     0.772890000000    -0.0132404  
C74      C      0.453410000000     0.967220000000     0.773350000000    -0.0270644  
C75      C      0.541960000000     0.020560000000     0.724550000000    -0.0125343  
C76      C      0.445100000000     0.002720000000     0.726250000000     0.0350449  
C77      C      0.507250000000     0.955590000000     0.224440000000    -0.0135578  
C78      C      0.476350000000     0.049770000000     0.222530000000    -0.0266143  
C79      C      0.483100000000     0.956280000000     0.278630000000    -0.011139   
C80      C      0.503380000000     0.053380000000     0.275660000000     0.0364675  
C81      C      0.736390000000     0.461960000000     0.487110000000    -0.0143192  
C82      C      0.736740000000     0.558700000000     0.504850000000    -0.027878   
C83      C      0.781590000000     0.455190000000     0.525340000000    -0.0114517  
C84      C      0.784180000000     0.551410000000     0.540150000000     0.0352233  
C85      C      0.282910000000     0.463160000000     0.516420000000    -0.0140554  
C86      C      0.284900000000     0.560090000000     0.502080000000    -0.0274886  
C87      C      0.234630000000     0.459380000000     0.481960000000    -0.0116844  
C88      C      0.233950000000     0.556290000000     0.471230000000     0.0339596  
C89      C      0.772160000000     0.508980000000     0.944760000000    -0.014651   
C90      C      0.774070000000     0.441140000000     0.014260000000    -0.0283227  
C91      C      0.729190000000     0.537910000000     0.974350000000    -0.0147646  
C92      C      0.731980000000     0.470950000000     0.044300000000     0.0330208  
C93      C      0.222580000000     0.484440000000     0.937540000000    -0.0133501  
C94      C      0.219900000000     0.561010000000     0.996080000000    -0.0265871  
C95      C      0.274380000000     0.466910000000     0.960570000000    -0.0153107  
C96      C      0.274840000000     0.548590000000     0.017030000000     0.0301369  
C97      C      0.025610000000     0.443640000000     0.718950000000    -0.013548   
C98      C      0.042520000000     0.539490000000     0.719930000000    -0.0273945  
C99      C      0.993170000000     0.448480000000     0.768470000000    -0.013411   
C100     C      0.007610000000     0.545890000000     0.767990000000     0.0347208  
C101     C      0.038210000000     0.473490000000     0.269860000000    -0.0147364  
C102     C      0.943240000000     0.497650000000     0.273420000000    -0.0278566  
C103     C      0.044760000000     0.507060000000     0.221380000000    -0.0123589  
C104     C      0.949470000000     0.527230000000     0.221860000000     0.0326346  
C105     C      0.956740000000     0.726410000000     0.478440000000    -0.0146014  
C106     C      0.051430000000     0.724580000000     0.507030000000    -0.026893   
C107     C      0.955570000000     0.777040000000     0.510140000000    -0.01297    
C108     C      0.052060000000     0.780870000000     0.486950000000     0.031652   
C109     C      0.958210000000     0.272980000000     0.491700000000    -0.0130486  
C110     C      0.054230000000     0.271630000000     0.472770000000    -0.0270642  
C111     C      0.965100000000     0.229170000000     0.530840000000    -0.0114073  
C112     C      0.061820000000     0.228110000000     0.513160000000     0.0346115  
C113     C      0.722720000000     0.948880000000     0.512930000000    -0.0129989  
C114     C      0.721530000000     0.011550000000     0.439570000000    -0.0267779  
C115     C      0.770930000000     0.974740000000     0.535620000000    -0.014739   
C116     C      0.772820000000     0.036380000000     0.458310000000     0.0327169  
C117     C      0.270850000000     0.055440000000     0.517940000000    -0.0144243  
C118     C      0.272300000000     0.986490000000     0.449450000000    -0.0277608  
C119     C      0.230860000000     0.023770000000     0.548780000000    -0.0146651  
C120     C      0.233170000000     0.954550000000     0.481030000000     0.0324188  
C121     C      0.003390000000     0.770670000000     0.964080000000    -0.0139669  
C122     C      0.989150000000     0.770110000000     0.061220000000    -0.0280872  
C123     C      0.971020000000     0.721130000000     0.959690000000    -0.011469   
C124     C      0.961720000000     0.717200000000     0.056220000000     0.0334262  
C125     C      0.039680000000     0.268900000000     0.973860000000    -0.0143317  
C126     C      0.011710000000     0.275490000000     0.067030000000    -0.0271521  
C127     C      0.008060000000     0.219070000000     0.967870000000    -0.0116234  
C128     C      0.985280000000     0.221850000000     0.062660000000     0.0320141  
C129     C      0.770290000000     0.986370000000     0.064500000000    -0.0129547  
C130     C      0.776370000000     0.062930000000     0.006170000000    -0.0272215  
C131     C      0.719770000000     0.969220000000     0.039060000000    -0.0145743  
C132     C      0.722280000000     0.051250000000     0.982920000000     0.0329151  
C133     C      0.269760000000     0.034350000000     0.026850000000    -0.0145384  
C134     C      0.270240000000     0.959110000000     0.964570000000    -0.027999   
C135     C      0.224000000000     0.009570000000     0.055490000000    -0.0143636  
C136     C      0.224270000000     0.934970000000     0.993930000000     0.0332222  
C137     C      0.043150000000     0.009090000000     0.734540000000    -0.0142289  
C138     C      0.947340000000     0.983750000000     0.733350000000    -0.0269614  
C139     C      0.042090000000     0.983140000000     0.788080000000    -0.011404   
C140     C      0.946370000000     0.009180000000     0.787660000000     0.0358519  
C141     C      0.955450000000     0.983770000000     0.243450000000    -0.0144096  
C142     C      0.053390000000     0.990530000000     0.239290000000    -0.0271397  
C143     C      0.954690000000     0.025880000000     0.285640000000    -0.0121701  
C144     C      0.052170000000     0.031060000000     0.282680000000     0.034694   
H1       H      0.509960000000     0.590920000000     0.741120000000     0.0436745  
H2       H      0.577750000000     0.549720000000     0.793160000000     0.0495464  
H3       H      0.431420000000     0.535220000000     0.745740000000     0.0342108  
H4       H      0.442720000000     0.449980000000     0.788650000000     0.0555215  
H5       H      0.563520000000     0.573460000000     0.699980000000     0.0494539  
H6       H      0.580330000000     0.495030000000     0.750050000000     0.0451823  
H7       H      0.495040000000     0.434970000000     0.744710000000     0.052164   
H8       H      0.367640000000     0.506790000000     0.666560000000     0.0415789  
H9       H      0.503910000000     0.563670000000     0.260170000000     0.0446152  
H10      H      0.433590000000     0.545220000000     0.199660000000     0.0485837  
H11      H      0.574290000000     0.476400000000     0.263820000000     0.0386552  
H12      H      0.544580000000     0.420390000000     0.195820000000     0.0516727  
H13      H      0.444230000000     0.552820000000     0.294310000000     0.0492133  
H14      H      0.417610000000     0.486000000000     0.233170000000     0.0443517  
H15      H      0.483060000000     0.409070000000     0.226430000000     0.0447277  
H16      H      0.507890000000     0.373700000000     0.323510000000     0.041213   
H17      H      0.577930000000     0.758340000000     0.491100000000     0.0440547  
H18      H      0.548560000000     0.802910000000     0.570030000000     0.0493294  
H19      H      0.507770000000     0.763030000000     0.423000000000     0.034901   
H20      H      0.427250000000     0.805420000000     0.454230000000     0.0543139  
H21      H      0.572840000000     0.713290000000     0.543710000000     0.0500903  
H22      H      0.495290000000     0.758150000000     0.577030000000     0.0454476  
H23      H      0.422520000000     0.758650000000     0.505750000000     0.0496132  
H24      H      0.463270000000     0.691570000000     0.361620000000     0.0413008  
H25      H      0.445480000000     0.275360000000     0.508610000000     0.0458637  
H26      H      0.458880000000     0.210230000000     0.575160000000     0.04876    
H27      H      0.538260000000     0.274900000000     0.438930000000     0.0357042  
H28      H      0.587350000000     0.202160000000     0.468650000000     0.0528905  
H29      H      0.459600000000     0.306260000000     0.569210000000     0.0501131  
H30      H      0.520050000000     0.238660000000     0.593840000000     0.0437827  
H31      H      0.597610000000     0.229530000000     0.531680000000     0.0476379  
H32      H      0.622020000000     0.329030000000     0.417610000000     0.0440298  
H33      H      0.441270000000     0.725990000000     0.955510000000     0.0429958  
H34      H      0.487830000000     0.795550000000     0.914620000000     0.0478606  
H35      H      0.464460000000     0.732430000000     0.059710000000     0.0366617  
H36      H      0.532720000000     0.796990000000     0.075120000000     0.0525311  
H37      H      0.490250000000     0.696480000000     0.915840000000     0.0449495  
H38      H      0.549620000000     0.767000000000     0.929690000000     0.0447552  
H39      H      0.576280000000     0.764410000000     0.030840000000     0.0522703  
H40      H      0.498670000000     0.666800000000     0.131670000000     0.0452598  
H41      H      0.557020000000     0.268200000000     0.941980000000     0.0433473  
H42      H      0.509450000000     0.198040000000     0.904630000000     0.0475191  
H43      H      0.537970000000     0.259320000000     0.047320000000     0.0373498  
H44      H      0.466470000000     0.198670000000     0.065670000000     0.053826   
H45      H      0.505970000000     0.298260000000     0.905500000000     0.0448273  
H46      H      0.448000000000     0.227250000000     0.919630000000     0.0446272  
H47      H      0.423810000000     0.233220000000     0.022050000000     0.0529067  
H48      H      0.510190000000     0.326590000000     0.121130000000     0.045435   
H49      H      0.538590000000     0.061780000000     0.737150000000     0.0440889  
H50      H      0.581590000000     0.003090000000     0.796570000000     0.0480576  
H51      H      0.434650000000     0.042060000000     0.740810000000     0.0360116  
H52      H      0.417760000000     0.968140000000     0.797920000000     0.0533176  
H53      H      0.577440000000     0.017600000000     0.699910000000     0.0463784  
H54      H      0.560550000000     0.947460000000     0.760200000000     0.0453002  
H55      H      0.459280000000     0.926580000000     0.759690000000     0.0512098  
H56      H      0.360110000000     0.018090000000     0.673220000000     0.0444265  
H57      H      0.440110000000     0.952340000000     0.275230000000     0.0463423  
H58      H      0.494850000000     0.919530000000     0.203990000000     0.0448923  
H59      H      0.486880000000     0.087380000000     0.296720000000     0.0340305  
H60      H      0.433490000000     0.048900000000     0.228590000000     0.0492869  
H61      H      0.497660000000     0.922080000000     0.300770000000     0.0456515  
H62      H      0.550390000000     0.954320000000     0.227780000000     0.0503604  
H63      H      0.485110000000     0.085190000000     0.199250000000     0.0509531  
H64      H      0.589740000000     0.094350000000     0.308190000000     0.0446863  
H65      H      0.765330000000     0.447810000000     0.564680000000     0.0452951  
H66      H      0.711200000000     0.426790000000     0.488820000000     0.0468091  
H67      H      0.768720000000     0.546700000000     0.580220000000     0.0345925  
H68      H      0.712080000000     0.590900000000     0.519930000000     0.0528784  
H69      H      0.805280000000     0.420900000000     0.513570000000     0.0436845  
H70      H      0.752510000000     0.465180000000     0.447160000000     0.0479585  
H71      H      0.750620000000     0.570360000000     0.465630000000     0.052478   
H72      H      0.855130000000     0.609090000000     0.583330000000     0.039718   
H73      H      0.247190000000     0.452630000000     0.441180000000     0.0463797  
H74      H      0.306310000000     0.427070000000     0.511680000000     0.0469116  
H75      H      0.245140000000     0.553650000000     0.429600000000     0.0342573  
H76      H      0.309260000000     0.592010000000     0.485940000000     0.053065   
H77      H      0.210900000000     0.425460000000     0.494690000000     0.0442694  
H78      H      0.270320000000     0.465880000000     0.557640000000     0.0463945  
H79      H      0.275400000000     0.570620000000     0.542900000000     0.0500484  
H80      H      0.165330000000     0.622080000000     0.436530000000     0.0396905  
H81      H      0.747990000000     0.567520000000     0.999640000000     0.044907   
H82      H      0.795920000000     0.537590000000     0.922770000000     0.0497981  
H83      H      0.753010000000     0.498960000000     0.069700000000     0.0350226  
H84      H      0.799580000000     0.419860000000     0.041930000000     0.0555062  
H85      H      0.704780000000     0.559120000000     0.945720000000     0.05074    
H86      H      0.753290000000     0.482640000000     0.916150000000     0.0453267  
H87      H      0.754660000000     0.411820000000     0.989080000000     0.0508583  
H88      H      0.680930000000     0.453800000000     0.129750000000     0.042028   
H89      H      0.266370000000     0.437080000000     0.990790000000     0.0472907  
H90      H      0.200930000000     0.449560000000     0.924010000000     0.0496402  
H91      H      0.270440000000     0.531880000000     0.056590000000     0.040535   
H92      H      0.197280000000     0.580430000000     0.027380000000     0.0544368  
H93      H      0.296860000000     0.447440000000     0.929210000000     0.0502713  
H94      H      0.230720000000     0.509210000000     0.903080000000     0.0435952  
H95      H      0.223170000000     0.589340000000     0.963550000000     0.0455075  
H96      H      0.322210000000     0.628170000000     0.975850000000     0.0399398  
H97      H      0.951420000000     0.449550000000     0.757090000000     0.0450667  
H98      H      0.010210000000     0.411140000000     0.694990000000     0.0484393  
H99      H      0.967750000000     0.555970000000     0.754440000000     0.0364896  
H100     H      0.040120000000     0.575460000000     0.696040000000     0.0531014  
H101     H      0.998820000000     0.412970000000     0.792500000000     0.0469482  
H102     H      0.066050000000     0.433230000000     0.730380000000     0.0446185  
H103     H      0.083640000000     0.534550000000     0.732690000000     0.0512234  
H104     H      0.991830000000     0.630370000000     0.821510000000     0.0444968  
H105     H      0.055500000000     0.547180000000     0.233450000000     0.0465185  
H106     H      0.075220000000     0.474630000000     0.292270000000     0.0490326  
H107     H      0.956710000000     0.568550000000     0.232370000000     0.0336536  
H108     H      0.913730000000     0.517680000000     0.297910000000     0.0535777  
H109     H      0.077250000000     0.490910000000     0.197730000000     0.0467311  
H110     H      0.031150000000     0.432620000000     0.257650000000     0.0476912  
H111     H      0.928020000000     0.458080000000     0.264840000000     0.0508384  
H112     H      0.877850000000     0.575040000000     0.168690000000     0.0346593  
H113     H      0.919830000000     0.799330000000     0.500030000000     0.0442186  
H114     H      0.956350000000     0.735960000000     0.436350000000     0.0478927  
H115     H      0.056390000000     0.780670000000     0.444000000000     0.0394064  
H116     H      0.086850000000     0.703890000000     0.492980000000     0.0475265  
H117     H      0.953480000000     0.767410000000     0.552170000000     0.0479827  
H118     H      0.921140000000     0.703300000000     0.487060000000     0.0456903  
H119     H      0.052860000000     0.724520000000     0.550230000000     0.0539178  
H120     H      0.152340000000     0.793710000000     0.491210000000     0.0324872  
H121     H      0.969330000000     0.246890000000     0.569990000000     0.0453652  
H122     H      0.925330000000     0.298330000000     0.503900000000     0.0474892  
H123     H      0.071680000000     0.246890000000     0.550790000000     0.0355001  
H124     H      0.089670000000     0.296520000000     0.471750000000     0.0518705  
H125     H      0.929410000000     0.204600000000     0.531470000000     0.0451368  
H126     H      0.947550000000     0.255330000000     0.453750000000     0.0463068  
H127     H      0.048990000000     0.253820000000     0.433740000000     0.0514944  
H128     H      0.143080000000     0.172290000000     0.536600000000     0.0448384  
H129     H      0.758130000000     0.003530000000     0.565200000000     0.0455885  
H130     H      0.699610000000     0.931550000000     0.545040000000     0.0490198  
H131     H      0.762780000000     0.073070000000     0.478800000000     0.0356996  
H132     H      0.697910000000     0.041670000000     0.419430000000     0.0525575  
H133     H      0.793780000000     0.944450000000     0.556320000000     0.0498499  
H134     H      0.735530000000     0.916730000000     0.487010000000     0.0438583  
H135     H      0.730620000000     0.980780000000     0.410550000000     0.0478417  
H136     H      0.824600000000     0.104250000000     0.403710000000     0.0439192  
H137     H      0.252280000000     0.998830000000     0.576870000000     0.0440455  
H138     H      0.295010000000     0.078480000000     0.545350000000     0.0484612  
H139     H      0.256460000000     0.930050000000     0.508050000000     0.0350695  
H140     H      0.297810000000     0.960130000000     0.426560000000     0.0537903  
H141     H      0.206390000000     0.051070000000     0.571620000000     0.0488906  
H142     H      0.249370000000     0.083210000000     0.492700000000     0.0438691  
H143     H      0.250350000000     0.011250000000     0.421590000000     0.0499464  
H144     H      0.217720000000     0.860360000000     0.447660000000     0.0319635  
H145     H      0.929400000000     0.731940000000     0.954420000000     0.0456221  
H146     H      0.996790000000     0.794650000000     0.928720000000     0.0466784  
H147     H      0.919270000000     0.725600000000     0.054140000000     0.0333923  
H148     H      0.970450000000     0.792870000000     0.092860000000     0.0536929  
H149     H      0.983970000000     0.699180000000     0.924730000000     0.0438847  
H150     H      0.045340000000     0.760000000000     0.965540000000     0.0473644  
H151     H      0.030310000000     0.763350000000     0.072900000000     0.0510816  
H152     H      0.933100000000     0.643350000000     0.118920000000     0.0380023  
H153     H      0.968010000000     0.229240000000     0.954880000000     0.0476262  
H154     H      0.039840000000     0.289650000000     0.935970000000     0.0489732  
H155     H      0.943160000000     0.229300000000     0.055880000000     0.0342974  
H156     H      0.989430000000     0.300180000000     0.094670000000     0.0533765  
H157     H      0.026400000000     0.194520000000     0.937300000000     0.0439367  
H158     H      0.080530000000     0.258440000000     0.983710000000     0.0474306  
H159     H      0.051330000000     0.270080000000     0.083660000000     0.0503566  
H160     H      0.947420000000     0.157660000000     0.130880000000     0.0398622  
H161     H      0.729040000000     0.939480000000     0.009100000000     0.0467267  
H162     H      0.790960000000     0.951410000000     0.079280000000     0.0492727  
H163     H      0.728240000000     0.034870000000     0.943410000000     0.0365413  
H164     H      0.800520000000     0.082140000000     0.975890000000     0.0533164  
H165     H      0.695850000000     0.949730000000     0.069320000000     0.0506265  
H166     H      0.760680000000     0.011480000000     0.098340000000     0.0438315  
H167     H      0.772110000000     0.091180000000     0.038660000000     0.0477557  
H168     H      0.674620000000     0.119380000000     0.925020000000     0.0436551  
H169     H      0.239860000000     0.984780000000     0.087160000000     0.0440651  
H170     H      0.293790000000     0.056210000000     0.055340000000     0.050107   
H171     H      0.241430000000     0.909950000000     0.024750000000     0.0339419  
H172     H      0.294990000000     0.927480000000     0.948490000000     0.0547318  
H173     H      0.200970000000     0.041020000000     0.074120000000     0.0509053  
H174     H      0.254080000000     0.062760000000     0.998300000000     0.0465842  
H175     H      0.254830000000     0.982020000000     0.931310000000     0.050853   
H176     H      0.168480000000     0.852000000000     0.978640000000     0.0426057  
H177     H      0.043230000000     0.940200000000     0.783170000000     0.0471076  
H178     H      0.078320000000     0.995670000000     0.713130000000     0.0458145  
H179     H      0.911830000000     0.994020000000     0.808920000000     0.0336784  
H180     H      0.945600000000     0.940820000000     0.738010000000     0.0498382  
H181     H      0.077610000000     0.994700000000     0.809980000000     0.045956   
H182     H      0.046640000000     0.051900000000     0.739300000000     0.0509002  
H183     H      0.912170000000     0.995420000000     0.710930000000     0.0500262  
H184     H      0.908190000000     0.095950000000     0.822070000000     0.0449921  
H185     H      0.950100000000     0.064450000000     0.266660000000     0.0444155  
H186     H      0.919450000000     0.987090000000     0.219650000000     0.0464113  
H187     H      0.050300000000     0.069640000000     0.263240000000     0.0359876  
H188     H      0.086490000000     0.998560000000     0.212580000000     0.0531635  
H189     H      0.920630000000     0.019290000000     0.311570000000     0.044764   
H190     H      0.955610000000     0.945010000000     0.262570000000     0.0473871  
H191     H      0.060150000000     0.951680000000     0.257020000000     0.0526587  
H192     H      0.116940000000     0.075260000000     0.346430000000     0.0400734  
N1       N      0.493800000000     0.526340000000     0.692570000000    -0.160974   
N2       N      0.512250000000     0.496830000000     0.796140000000    -0.155433   
N3       N      0.502680000000     0.492480000000     0.301290000000    -0.159423   
N4       N      0.488610000000     0.482500000000     0.191980000000    -0.155855   
N5       N      0.513260000000     0.707550000000     0.483740000000    -0.160882   
N6       N      0.486610000000     0.809610000000     0.513610000000    -0.155531   
N7       N      0.519860000000     0.310650000000     0.510750000000    -0.159938   
N8       N      0.522210000000     0.200640000000     0.521250000000    -0.155293   
N9       N      0.502770000000     0.692890000000     0.998400000000    -0.161932   
N10      N      0.512940000000     0.801430000000     0.994180000000    -0.15569    
N11      N      0.498330000000     0.301320000000     0.988520000000    -0.161944   
N12      N      0.484580000000     0.193030000000     0.984230000000    -0.155284   
N13      N      0.494150000000     0.006390000000     0.696160000000    -0.162166   
N14      N      0.500060000000     0.983570000000     0.802120000000    -0.156219   
N15      N      0.495320000000     0.005250000000     0.305750000000    -0.163631   
N16      N      0.491950000000     0.002100000000     0.194820000000    -0.155945   
N17      N      0.812400000000     0.503230000000     0.526160000000    -0.162376   
N18      N      0.707270000000     0.509760000000     0.499510000000    -0.154934   
N19      N      0.205100000000     0.508250000000     0.484920000000    -0.162101   
N20      N      0.312800000000     0.510000000000     0.502780000000    -0.155475   
N21      N      0.699230000000     0.501360000000     0.007250000000    -0.160222   
N22      N      0.803340000000     0.477590000000     0.981140000000    -0.154694   
N23      N      0.303940000000     0.509990000000     0.984780000000    -0.15902    
N24      N      0.193230000000     0.514820000000     0.975810000000    -0.154156   
N25      N      0.005130000000     0.496440000000     0.797570000000    -0.161006   
N26      N      0.027030000000     0.493140000000     0.690410000000    -0.154373   
N27      N      0.995510000000     0.508500000000     0.192290000000    -0.160309   
N28      N      0.993430000000     0.491800000000     0.300610000000    -0.153593   
N29      N      0.002900000000     0.807980000000     0.500320000000    -0.161115   
N30      N      0.004200000000     0.696720000000     0.490440000000    -0.156585   
N31      N      0.012380000000     0.198930000000     0.519310000000    -0.162123   
N32      N      0.007280000000     0.301790000000     0.485440000000    -0.156053   
N33      N      0.801690000000     0.002260000000     0.495510000000    -0.1604     
N34      N      0.693170000000     0.986980000000     0.482480000000    -0.155854   
N35      N      0.200600000000     0.990250000000     0.513120000000    -0.161467   
N36      N      0.301880000000     0.020270000000     0.485020000000    -0.155987   
N37      N      0.976840000000     0.690510000000     0.007470000000    -0.161515   
N38      N      0.989580000000     0.799090000000     0.011740000000    -0.154593   
N39      N      0.005310000000     0.191530000000     0.017800000000    -0.160159   
N40      N      0.017610000000     0.300650000000     0.015970000000    -0.154297   
N41      N      0.691750000000     0.012700000000     0.013720000000    -0.159475   
N42      N      0.801400000000     0.016210000000     0.027320000000    -0.155399   
N43      N      0.193320000000     0.976760000000     0.019630000000    -0.160855   
N44      N      0.299730000000     0.994380000000     0.998790000000    -0.155353   
N45      N      0.994520000000     0.997420000000     0.816740000000    -0.16245    
N46      N      0.995410000000     0.997190000000     0.705060000000    -0.153691   
N47      N      0.004330000000     0.024590000000     0.314120000000    -0.16225    
N48      N      0.002960000000     0.989300000000     0.211940000000    -0.155722   
O1       O      0.996580000000     0.995330000000     0.014910000000    -0.370396   
O2       O      0.963460000000     0.968860000000     0.135360000000    -0.302955   
O3       O      0.118440000000     0.019470000000     0.042680000000    -0.303404   
O4       O      0.014230000000     0.876590000000     0.976640000000    -0.302834   
O5       O      0.035650000000     0.015820000000     0.134130000000    -0.303745   
O6       O      0.965710000000     0.876760000000     0.048010000000    -0.299979   
O7       O      0.112720000000     0.954310000000     0.987610000000    -0.302744   
O8       O      0.959970000000     0.022200000000     0.894760000000    -0.303017   
O9       O      0.028390000000     0.112490000000     0.051300000000    -0.297459   
O10      O      0.029770000000     0.971670000000     0.893880000000    -0.303612   
O11      O      0.978700000000     0.115610000000     0.980710000000    -0.302465   
O12      O      0.880210000000     0.037750000000     0.992280000000    -0.304477   
O13      O      0.875810000000     0.971190000000     0.046680000000    -0.302311   
O14      O      0.001000000000     0.003460000000     0.509050000000    -0.368374   
O15      O      0.881520000000     0.038340000000     0.478050000000    -0.305104   
O16      O      0.968150000000     0.883360000000     0.531730000000    -0.299869   
O17      O      0.034830000000     0.986150000000     0.387920000000    -0.300177   
O18      O      0.877820000000     0.970990000000     0.530420000000    -0.303768   
O19      O      0.971330000000     0.044430000000     0.393480000000    -0.304236   
O20      O      0.030450000000     0.887200000000     0.471860000000    -0.300026   
O21      O      0.123740000000     0.023180000000     0.544100000000    -0.306096   
O22      O      0.962430000000     0.972830000000     0.626180000000    -0.298684   
O23      O      0.121080000000     0.970670000000     0.477120000000    -0.302084   
O24      O      0.031690000000     0.024670000000     0.629200000000    -0.301293   
O25      O      0.042180000000     0.118490000000     0.541710000000    -0.302872   
O26      O      0.972020000000     0.125410000000     0.491710000000    -0.304504   
O27      O      0.998510000000     0.495600000000     0.995110000000    -0.369788   
O28      O      0.032950000000     0.376090000000     0.972100000000    -0.30273    
O29      O      0.959750000000     0.481350000000     0.115420000000    -0.298189   
O30      O      0.116180000000     0.536940000000     0.014900000000    -0.300182   
O31      O      0.981920000000     0.378380000000     0.041550000000    -0.298596   
O32      O      0.117000000000     0.471770000000     0.958470000000    -0.299524   
O33      O      0.036390000000     0.520600000000     0.114490000000    -0.301262   
O34      O      0.961140000000     0.613390000000     0.967320000000    -0.305259   
O35      O      0.881230000000     0.456410000000     0.018770000000    -0.301534   
O36      O      0.014990000000     0.614800000000     0.034550000000    -0.298581   
O37      O      0.880020000000     0.515910000000     0.956430000000    -0.301158   
O38      O      0.977590000000     0.530750000000     0.874640000000    -0.303259   
O39      O      0.022880000000     0.457520000000     0.875150000000    -0.301756   
O40      O      0.007300000000     0.499350000000     0.495650000000    -0.368778   
O41      O      0.975560000000     0.377780000000     0.517820000000    -0.305316   
O42      O      0.034170000000     0.472280000000     0.376850000000    -0.301277   
O43      O      0.884520000000     0.531870000000     0.483340000000    -0.300179   
O44      O      0.042710000000     0.380220000000     0.464070000000    -0.303351   
O45      O      0.891980000000     0.467140000000     0.539730000000    -0.303295   
O46      O      0.962110000000     0.520280000000     0.379160000000    -0.297218   
O47      O      0.036590000000     0.620030000000     0.519730000000    -0.305888   
O48      O      0.127940000000     0.471350000000     0.462350000000    -0.305965   
O49      O      0.970710000000     0.618580000000     0.464200000000    -0.299856   
O50      O      0.127680000000     0.537420000000     0.517300000000    -0.30087    
O51      O      0.041250000000     0.532360000000     0.612150000000    -0.301512   
O52      O      0.995500000000     0.459020000000     0.614650000000    -0.300232   
O53      O      0.496360000000     0.997290000000     0.997930000000    -0.372604   
O54      O      0.377850000000     0.961180000000     0.972060000000    -0.304053   
O55      O      0.467650000000     0.034870000000     0.116360000000    -0.306175   
O56      O      0.530790000000     0.880130000000     0.030060000000    -0.307087   
O57      O      0.377410000000     0.027400000000     0.027070000000    -0.303898   
O58      O      0.475840000000     0.876390000000     0.963870000000    -0.302594   
O59      O      0.519240000000     0.966040000000     0.118950000000    -0.30662    
O60      O      0.614420000000     0.034670000000     0.974400000000    -0.301382   
O61      O      0.466190000000     0.116070000000     0.023090000000    -0.307862   
O62      O      0.613970000000     0.975470000000     0.036620000000    -0.303469   
O63      O      0.516700000000     0.115650000000     0.953390000000    -0.30041    
O64      O      0.535040000000     0.013780000000     0.877910000000    -0.303724   
O65      O      0.462180000000     0.967850000000     0.880310000000    -0.306139   
O66      O      0.498100000000     0.006370000000     0.501210000000    -0.372547   
O67      O      0.378750000000     0.045560000000     0.522050000000    -0.304824   
O68      O      0.475550000000     0.968960000000     0.383770000000    -0.307034   
O69      O      0.539530000000     0.123910000000     0.479990000000    -0.304698   
O70      O      0.379570000000     0.982370000000     0.463770000000    -0.304754   
O71      O      0.477060000000     0.125890000000     0.539160000000    -0.302179   
O72      O      0.517800000000     0.044180000000     0.382180000000    -0.305329   
O73      O      0.617140000000     0.969270000000     0.525050000000    -0.30424    
O74      O      0.462060000000     0.887160000000     0.478100000000    -0.30557    
O75      O      0.616050000000     0.025560000000     0.460070000000    -0.303912   
O76      O      0.522400000000     0.887180000000     0.539370000000    -0.301451   
O77      O      0.533750000000     0.985130000000     0.620140000000    -0.303905   
O78      O      0.459340000000     0.029100000000     0.618060000000    -0.304474   
O79      O      0.501450000000     0.496970000000     0.994110000000    -0.367905   
O80      O      0.381060000000     0.472600000000     0.958510000000    -0.299598   
O81      O      0.465200000000     0.521070000000     0.115300000000    -0.303513   
O82      O      0.528030000000     0.377400000000     0.022050000000    -0.305263   
O83      O      0.383090000000     0.532500000000     0.019960000000    -0.300082   
O84      O      0.471720000000     0.379310000000     0.956540000000    -0.301262   
O85      O      0.525550000000     0.460000000000     0.114320000000    -0.305415   
O86      O      0.622260000000     0.530790000000     0.972660000000    -0.301477   
O87      O      0.478230000000     0.615060000000     0.032360000000    -0.305014   
O88      O      0.619500000000     0.466620000000     0.029290000000    -0.300974   
O89      O      0.527420000000     0.616520000000     0.961410000000    -0.302608   
O90      O      0.541130000000     0.525290000000     0.875330000000    -0.302847   
O91      O      0.474360000000     0.471250000000     0.872290000000    -0.303897   
O92      O      0.510070000000     0.509200000000     0.497580000000    -0.368598   
O93      O      0.389970000000     0.543770000000     0.474430000000    -0.302325   
O94      O      0.485220000000     0.388870000000     0.536500000000    -0.303484   
O95      O      0.539630000000     0.473440000000     0.380400000000    -0.300698   
O96      O      0.390630000000     0.472120000000     0.522190000000    -0.304086   
O97      O      0.473760000000     0.528640000000     0.377750000000    -0.301475   
O98      O      0.542490000000     0.388340000000     0.472980000000    -0.304534   
O99      O      0.629530000000     0.543390000000     0.526510000000    -0.30171    
O100     O      0.473340000000     0.487710000000     0.614880000000    -0.30217    
O101     O      0.629840000000     0.476590000000     0.471990000000    -0.303164   
O102     O      0.534780000000     0.547730000000     0.616190000000    -0.30096    
O103     O      0.540150000000     0.631260000000     0.521220000000    -0.303461   
O104     O      0.482370000000     0.627310000000     0.458400000000    -0.301793   
S1       S      0.399580000000     0.470720000000     0.689360000000    -0.0199671  
S2       S      0.552710000000     0.397000000000     0.306370000000    -0.0243272  
S3       S      0.437050000000     0.707070000000     0.405300000000    -0.0217363  
S4       S      0.618500000000     0.311690000000     0.467810000000    -0.0262973  
S5       S      0.535790000000     0.687790000000     0.099690000000    -0.031799   
S6       S      0.470730000000     0.306430000000     0.091480000000    -0.0321723  
S7       S      0.390730000000     0.977760000000     0.689860000000    -0.0301328  
S8       S      0.571570000000     0.065140000000     0.267560000000    -0.026048   
S9       S      0.823560000000     0.609160000000     0.540440000000    -0.0289364  
S10      S      0.197520000000     0.615520000000     0.478460000000    -0.0281757  
S11      S      0.698940000000     0.427020000000     0.087400000000    -0.019384   
S12      S      0.307960000000     0.609990000000     0.023810000000    -0.0205422  
S13      S      0.032330000000     0.599770000000     0.805130000000    -0.0303837  
S14      S      0.888940000000     0.526240000000     0.186900000000    -0.0232515  
S15      S      0.108080000000     0.812890000000     0.513930000000    -0.0218488  
S16      S      0.116370000000     0.188860000000     0.493610000000    -0.033105   
S17      S      0.808820000000     0.053440000000     0.400720000000    -0.0252894  
S18      S      0.199610000000     0.909760000000     0.439260000000    -0.013666   
S19      S      0.971700000000     0.679830000000     0.114320000000    -0.0259078  
S20      S      0.990120000000     0.188860000000     0.123950000000    -0.0246062  
S21      S      0.689780000000     0.112890000000     0.975620000000    -0.0237229  
S22      S      0.190060000000     0.891960000000     0.950780000000    -0.0204099  
S23      S      0.938340000000     0.078020000000     0.781980000000    -0.0248636  
S24      S      0.111960000000     0.029930000000     0.318910000000    -0.0246798  
Zn1      Zn     0.951400000000     0.953680000000     0.059430000000     0.449919   
Zn2      Zn     0.043400000000     0.035360000000     0.058930000000     0.451846   
Zn3      Zn     0.036870000000     0.951150000000     0.969120000000     0.45369    
Zn4      Zn     0.955360000000     0.041100000000     0.971150000000     0.449919   
Zn5      Zn     0.957650000000     0.051700000000     0.470010000000     0.454168   
Zn6      Zn     0.953470000000     0.958980000000     0.548730000000     0.447428   
Zn7      Zn     0.044930000000     0.963270000000     0.462160000000     0.455162   
Zn8      Zn     0.048310000000     0.041370000000     0.554650000000     0.451801   
Zn9      Zn     0.041050000000     0.450870000000     0.951420000000     0.451269   
Zn10     Zn     0.956350000000     0.453720000000     0.041680000000     0.448311   
Zn11     Zn     0.041120000000     0.540300000000     0.038590000000     0.44942    
Zn12     Zn     0.955590000000     0.537770000000     0.949410000000     0.452295   
Zn13     Zn     0.968920000000     0.452000000000     0.540690000000     0.450885   
Zn14     Zn     0.052030000000     0.457130000000     0.451460000000     0.452276   
Zn15     Zn     0.957450000000     0.541090000000     0.455790000000     0.44669    
Zn16     Zn     0.051660000000     0.545740000000     0.535500000000     0.453253   
Zn17     Zn     0.453770000000     0.951690000000     0.955580000000     0.454363   
Zn18     Zn     0.453320000000     0.042200000000     0.040200000000     0.458257   
Zn19     Zn     0.538590000000     0.955770000000     0.044450000000     0.457698   
Zn20     Zn     0.539440000000     0.039430000000     0.951870000000     0.449682   
Zn21     Zn     0.453910000000     0.050650000000     0.543420000000     0.453136   
Zn22     Zn     0.455180000000     0.962100000000     0.458310000000     0.456525   
Zn23     Zn     0.541160000000     0.049360000000     0.456800000000     0.452548   
Zn24     Zn     0.541920000000     0.963560000000     0.545500000000     0.452872   
Zn25     Zn     0.457790000000     0.456110000000     0.947080000000     0.449748   
Zn26     Zn     0.458640000000     0.539940000000     0.039540000000     0.452321   
Zn27     Zn     0.542920000000     0.451880000000     0.038470000000     0.453369   
Zn28     Zn     0.546800000000     0.541030000000     0.951910000000     0.449848   
Zn29     Zn     0.465360000000     0.551040000000     0.452970000000     0.449844   
Zn30     Zn     0.466420000000     0.464970000000     0.540830000000     0.453113   
Zn31     Zn     0.554210000000     0.463700000000     0.456570000000     0.453729   
Zn32     Zn     0.552790000000     0.556100000000     0.539710000000     0.449096   


