data_structure

_audit_creation_method RASPA-1.0
_audit_creation_date 2023-5-19
_audit_author_name 'Poobodin Mano'

_cell_length_a    25.6654
_cell_length_b    25.7373
_cell_length_c    25.5916
_cell_angle_alpha 90
_cell_angle_beta  90
_cell_angle_gamma 90
_cell_volume      16904.7

_symmetry_cell_setting          triclinic
_symmetry_space_group_name_Hall 'P 1'
_symmetry_space_group_name_H-M  'P 1'
_symmetry_Int_Tables_number     1

_symmetry_equiv_pos_as_xyz 'x,y,z'

loop_
_atom_site_label
_atom_site_type_symbol
_atom_site_fract_x
_atom_site_fract_y
_atom_site_fract_z
_atom_site_charge
C1       C      0.003720000000     0.992290000000     0.141590000000     0.3688     
C2       C      0.146920000000     0.995960000000     0.991460000000     0.365463   
C3       C      0.995040000000     0.853190000000     0.994210000000     0.366367   
C4       C      0.006860000000     0.003460000000     0.853220000000     0.362363   
C5       C      0.007980000000     0.141040000000     0.006960000000     0.36845    
C6       C      0.859590000000     0.001060000000     0.992300000000     0.367672   
C7       C      0.994740000000     0.008700000000     0.353620000000     0.363993   
C8       C      0.135730000000     0.000990000000     0.505120000000     0.363094   
C9       C      0.987630000000     0.139810000000     0.496790000000     0.363191   
C10      C      0.988660000000     0.994260000000     0.640000000000     0.364962   
C11      C      0.000250000000     0.854530000000     0.486260000000     0.362489   
C12      C      0.846970000000     0.990760000000     0.504130000000     0.366342   
C13      C      0.864470000000     0.497950000000     0.992360000000     0.366991   
C14      C      0.006490000000     0.639440000000     0.994880000000     0.360103   
C15      C      0.995810000000     0.485010000000     0.141580000000     0.362599   
C16      C      0.150210000000     0.507240000000     0.013050000000     0.363652   
C17      C      0.012110000000     0.487600000000     0.855100000000     0.36257    
C18      C      0.012320000000     0.351310000000     0.987510000000     0.363264   
C19      C      0.002340000000     0.351480000000     0.512460000000     0.361973   
C20      C      0.014380000000     0.489440000000     0.354970000000     0.35555    
C21      C      0.862840000000     0.496110000000     0.484100000000     0.362145   
C22      C      0.007000000000     0.641040000000     0.499520000000     0.361055   
C23      C      0.153340000000     0.493320000000     0.494980000000     0.361176   
C24      C      0.005650000000     0.503020000000     0.641280000000     0.355937   
C25      C      0.359660000000     0.996670000000     0.010730000000     0.369297   
C26      C      0.513340000000     0.011250000000     0.151890000000     0.363686   
C27      C      0.495990000000     0.855930000000     0.025960000000     0.371517   
C28      C      0.645970000000     0.989560000000     0.993090000000     0.364312   
C29      C      0.506080000000     0.142960000000     0.005400000000     0.360108   
C30      C      0.499930000000     0.988310000000     0.863960000000     0.369229   
C31      C      0.491840000000     0.999290000000     0.361080000000     0.370733   
C32      C      0.349560000000     0.015660000000     0.503330000000     0.36803    
C33      C      0.498940000000     0.866660000000     0.506240000000     0.363312   
C34      C      0.485980000000     0.003070000000     0.650510000000     0.36441    
C35      C      0.492000000000     0.151510000000     0.507240000000     0.367997   
C36      C      0.637220000000     0.018560000000     0.507820000000     0.361002   
C37      C      0.364700000000     0.509570000000     0.022900000000     0.359155   
C38      C      0.513360000000     0.649620000000     0.006090000000     0.367123   
C39      C      0.511810000000     0.505570000000     0.154210000000     0.358902   
C40      C      0.651290000000     0.499220000000     0.009670000000     0.360651   
C41      C      0.501060000000     0.507110000000     0.865270000000     0.360231   
C42      C      0.502950000000     0.358500000000     0.001610000000     0.367035   
C43      C      0.363450000000     0.497910000000     0.521940000000     0.363809   
C44      C      0.513080000000     0.362150000000     0.508340000000     0.364846   
C45      C      0.489340000000     0.515230000000     0.365700000000     0.364201   
C46      C      0.648630000000     0.502700000000     0.493220000000     0.363359   
C47      C      0.517930000000     0.511860000000     0.652000000000     0.364507   
C48      C      0.503770000000     0.652470000000     0.515800000000     0.362392   
C49      C      0.503860000000     0.458490000000     0.782410000000    -0.0152097  
C50      C      0.481880000000     0.553880000000     0.783150000000    -0.0428763  
C51      C      0.536790000000     0.466410000000     0.733380000000    -0.0103941  
C52      C      0.517700000000     0.562510000000     0.735610000000     0.091275   
C53      C      0.507610000000     0.459660000000     0.238920000000    -0.0159711  
C54      C      0.523610000000     0.556230000000     0.235600000000    -0.0438361  
C55      C      0.470750000000     0.467630000000     0.285040000000    -0.0099455  
C56      C      0.484620000000     0.564190000000     0.280740000000     0.0912555  
C57      C      0.451550000000     0.732740000000     0.524210000000    -0.0152961  
C58      C      0.548400000000     0.734950000000     0.536180000000    -0.0438507  
C59      C      0.453910000000     0.783930000000     0.494150000000    -0.0125797  
C60      C      0.551960000000     0.784850000000     0.503620000000     0.092185   
C61      C      0.526710000000     0.279120000000     0.461640000000    -0.0161053  
C62      C      0.519570000000     0.280980000000     0.559570000000    -0.0448027  
C63      C      0.487760000000     0.234090000000     0.459710000000    -0.0110803  
C64      C      0.481890000000     0.234960000000     0.557630000000     0.0920957  
C65      C      0.554330000000     0.733030000000     0.033070000000    -0.0163357  
C66      C      0.477220000000     0.732210000000     0.972370000000    -0.046123   
C67      C      0.527080000000     0.774380000000     0.066640000000    -0.0129765  
C68      C      0.449530000000     0.770440000000     0.008630000000     0.0928955  
C69      C      0.481780000000     0.226060000000     0.047920000000    -0.0158463  
C70      C      0.549010000000     0.224310000000     0.976890000000    -0.0443646  
C71      C      0.459370000000     0.276240000000     0.025110000000    -0.0142331  
C72      C      0.526220000000     0.274570000000     0.954020000000     0.0913143  
C73      C      0.509710000000     0.042300000000     0.735410000000    -0.0152113  
C74      C      0.446410000000     0.968170000000     0.731740000000    -0.044469   
C75      C      0.538130000000     0.015790000000     0.780190000000    -0.0130464  
C76      C      0.473390000000     0.943150000000     0.779190000000     0.0912027  
C77      C      0.553820000000     0.988330000000     0.237210000000    -0.0158813  
C78      C      0.480110000000     0.052070000000     0.232940000000    -0.045712   
C79      C      0.524750000000     0.958210000000     0.280040000000    -0.0135074  
C80      C      0.450150000000     0.019840000000     0.273120000000     0.092354   
C81      C      0.781430000000     0.536230000000     0.451900000000    -0.0154758  
C82      C      0.781810000000     0.444350000000     0.485040000000    -0.0431909  
C83      C      0.731650000000     0.546990000000     0.482960000000    -0.010448   
C84      C      0.729010000000     0.453540000000     0.511910000000     0.0895337  
C85      C      0.238440000000     0.448680000000     0.483020000000    -0.0164582  
C86      C      0.234010000000     0.545450000000     0.496930000000    -0.0454551  
C87      C      0.283170000000     0.445360000000     0.523240000000    -0.0114873  
C88      C      0.277360000000     0.541510000000     0.537630000000     0.0926823  
C89      C      0.735920000000     0.539400000000     0.031690000000    -0.0164998  
C90      C      0.730990000000     0.446220000000     0.001500000000    -0.0448689  
C91      C      0.783490000000     0.547920000000     0.996580000000    -0.0095486  
C92      C      0.780610000000     0.454390000000     0.969160000000     0.0912811  
C93      C      0.282440000000     0.469190000000     0.051850000000    -0.0153209  
C94      C      0.284980000000     0.563470000000     0.027280000000    -0.0430327  
C95      C      0.232850000000     0.462170000000     0.019860000000    -0.0108851  
C96      C      0.230970000000     0.558430000000     0.001370000000     0.0888432  
C97      C      0.053030000000     0.518480000000     0.724270000000    -0.0166775  
C98      C      0.956250000000     0.502060000000     0.724340000000    -0.0456483  
C99      C      0.059030000000     0.482110000000     0.771480000000    -0.0113886  
C100     C      0.962720000000     0.467150000000     0.772480000000     0.0918693  
C101     C      0.017050000000     0.536320000000     0.270800000000    -0.015747   
C102     C      0.027660000000     0.439250000000     0.273240000000    -0.0436996  
C103     C      0.980970000000     0.531180000000     0.223800000000    -0.0109602  
C104     C      0.990850000000     0.433990000000     0.225740000000     0.0911616  
C105     C      0.953690000000     0.720790000000     0.500310000000    -0.0156058  
C106     C      0.050050000000     0.724910000000     0.517750000000    -0.0428887  
C107     C      0.957060000000     0.771560000000     0.469350000000    -0.0114191  
C108     C      0.054390000000     0.773430000000     0.482870000000     0.091307   
C109     C      0.047710000000     0.266740000000     0.514050000000    -0.0150988  
C110     C      0.952270000000     0.272420000000     0.534890000000    -0.0431624  
C111     C      0.037620000000     0.218870000000     0.480300000000    -0.0113387  
C112     C      0.941270000000     0.225770000000     0.498820000000     0.0914222  
C113     C      0.718960000000     0.022870000000     0.457090000000    -0.0150149  
C114     C      0.720620000000     0.030620000000     0.554880000000    -0.0432457  
C115     C      0.763240000000     0.983500000000     0.459190000000    -0.01072    
C116     C      0.764610000000     0.989850000000     0.557580000000     0.0908566  
C117     C      0.217410000000     0.998700000000     0.556240000000    -0.0156256  
C118     C      0.218350000000     0.991140000000     0.457940000000    -0.0438545  
C119     C      0.269410000000     0.028070000000     0.553630000000    -0.0113901  
C120     C      0.265540000000     0.027200000000     0.455340000000     0.0928989  
C121     C      0.016620000000     0.722950000000     0.041230000000    -0.0162894  
C122     C      0.013710000000     0.720030000000     0.942800000000    -0.0449216  
C123     C      0.981710000000     0.771060000000     0.040640000000    -0.0111855  
C124     C      0.982200000000     0.770810000000     0.942810000000     0.0912825  
C125     C      0.962910000000     0.269920000000     0.975530000000    -0.0144207  
C126     C      0.060750000000     0.268920000000     0.977730000000    -0.0430812  
C127     C      0.961290000000     0.223700000000     0.012730000000    -0.0111564  
C128     C      0.059550000000     0.223600000000     0.016980000000     0.0913203  
C129     C      0.729890000000     0.946440000000     0.013300000000    -0.0150832  
C130     C      0.724100000000     0.009390000000     0.939610000000    -0.0438028  
C131     C      0.777740000000     0.974480000000     0.034200000000    -0.0136105  
C132     C      0.773960000000     0.036880000000     0.958120000000     0.0912637  
C133     C      0.232060000000     0.966810000000     0.955650000000    -0.015239   
C134     C      0.226250000000     0.046820000000     0.010690000000    -0.0450581  
C135     C      0.279380000000     0.949210000000     0.987520000000    -0.0131404  
C136     C      0.272140000000     0.028690000000     0.044070000000     0.0923538  
C137     C      0.001380000000     0.051910000000     0.769680000000    -0.0159373  
C138     C      0.028380000000     0.958050000000     0.771210000000    -0.0441735  
C139     C      0.968750000000     0.041360000000     0.720760000000    -0.0115325  
C140     C      0.991960000000     0.946330000000     0.725340000000     0.0924307  
C141     C      0.953370000000     0.027170000000     0.268480000000    -0.0155322  
C142     C      0.050350000000     0.015500000000     0.275290000000    -0.0442945  
C143     C      0.952260000000     0.989650000000     0.222080000000    -0.0110987  
C144     C      0.049630000000     0.979850000000     0.227450000000     0.0918949  
H1       H      0.578120000000     0.470660000000     0.745710000000     0.0435175  
H2       H      0.521040000000     0.426750000000     0.806350000000     0.0460506  
H3       H      0.557160000000     0.572470000000     0.750670000000     0.0256808  
H4       H      0.482800000000     0.589120000000     0.808350000000     0.0579547  
H5       H      0.534290000000     0.431130000000     0.708330000000     0.0436442  
H6       H      0.464470000000     0.445470000000     0.769940000000     0.045896   
H7       H      0.441200000000     0.548180000000     0.769250000000     0.054876   
H8       H      0.526710000000     0.621180000000     0.680270000000     0.10269    
H9       H      0.464090000000     0.596280000000     0.684130000000     0.0936666  
H10      H      0.430400000000     0.470100000000     0.269380000000     0.0429846  
H11      H      0.494140000000     0.425910000000     0.215410000000     0.0483814  
H12      H      0.445550000000     0.570750000000     0.263000000000     0.0243714  
H13      H      0.521830000000     0.590530000000     0.209180000000     0.0589268  
H14      H      0.472430000000     0.433130000000     0.311210000000     0.0445653  
H15      H      0.546720000000     0.449740000000     0.254750000000     0.0471044  
H16      H      0.563690000000     0.553870000000     0.251990000000     0.0544917  
H17      H      0.468480000000     0.623530000000     0.333620000000     0.102939   
H18      H      0.533320000000     0.604310000000     0.332620000000     0.0955709  
H19      H      0.453650000000     0.774700000000     0.451700000000     0.0423348  
H20      H      0.418750000000     0.708980000000     0.508910000000     0.0461791  
H21      H      0.559510000000     0.773380000000     0.462350000000     0.024039   
H22      H      0.584790000000     0.712150000000     0.530370000000     0.0594913  
H23      H      0.417910000000     0.806550000000     0.502400000000     0.0467714  
H24      H      0.442790000000     0.741760000000     0.565790000000     0.0430498  
H25      H      0.545770000000     0.745460000000     0.578280000000     0.053092   
H26      H      0.612620000000     0.838250000000     0.493620000000     0.103509   
H27      H      0.587110000000     0.836270000000     0.556740000000     0.0974322  
H28      H      0.447890000000     0.250290000000     0.454680000000     0.0440754  
H29      H      0.522100000000     0.303010000000     0.425730000000     0.0474681  
H30      H      0.441950000000     0.251760000000     0.556050000000     0.0253528  
H31      H      0.509950000000     0.306100000000     0.593590000000     0.0593132  
H32      H      0.496820000000     0.209500000000     0.425100000000     0.044194   
H33      H      0.566830000000     0.262790000000     0.461970000000     0.0446734  
H34      H      0.559700000000     0.265800000000     0.565660000000     0.0509924  
H35      H      0.457490000000     0.175200000000     0.606990000000     0.0993645  
H36      H      0.523520000000     0.190410000000     0.612260000000     0.103574   
H37      H      0.505680000000     0.754200000000     0.098520000000     0.0430018  
H38      H      0.579210000000     0.708450000000     0.058590000000     0.0496873  
H39      H      0.430080000000     0.746720000000     0.039390000000     0.0248927  
H40      H      0.447850000000     0.707130000000     0.952800000000     0.0613396  
H41      H      0.557130000000     0.799460000000     0.085100000000     0.0487195  
H42      H      0.580330000000     0.753330000000     0.004950000000     0.0447509  
H43      H      0.498140000000     0.754490000000     0.941580000000     0.052338   
H44      H      0.389650000000     0.825350000000     0.005160000000     0.101173   
H45      H      0.420900000000     0.814350000000     0.945220000000     0.101573   
H46      H      0.427110000000     0.265680000000     0.998090000000     0.0427884  
H47      H      0.449500000000     0.203610000000     0.066050000000     0.0479664  
H48      H      0.496540000000     0.262710000000     0.924600000000     0.0229029  
H49      H      0.564840000000     0.200410000000     0.944340000000     0.0606545  
H50      H      0.442040000000     0.299070000000     0.057600000000     0.0488765  
H51      H      0.509640000000     0.236560000000     0.079480000000     0.0446107  
H52      H      0.582090000000     0.234470000000     0.003070000000     0.0520227  
H53      H      0.553250000000     0.328990000000     0.899620000000     0.10372    
H54      H      0.595800000000     0.317650000000     0.952250000000     0.102753   
H55      H      0.568980000000     0.990440000000     0.763380000000     0.0431921  
H56      H      0.538320000000     0.065410000000     0.712550000000     0.0485606  
H57      H      0.502870000000     0.915530000000     0.763410000000     0.0226458  
H58      H      0.430860000000     0.936900000000     0.706110000000     0.0601942  
H59      H      0.558020000000     0.046120000000     0.803780000000     0.049397   
H60      H      0.480670000000     0.069740000000     0.752110000000     0.0443876  
H61      H      0.412710000000     0.991510000000     0.745780000000     0.0510292  
H62      H      0.452180000000     0.885930000000     0.833150000000     0.101762   
H63      H      0.407200000000     0.936970000000     0.827090000000     0.101276   
H64      H      0.502190000000     0.926520000000     0.261030000000     0.0432135  
H65      H      0.577810000000     0.960750000000     0.214030000000     0.049195   
H66      H      0.428460000000     0.989640000000     0.250780000000     0.0246257  
H67      H      0.452130000000     0.072200000000     0.206680000000     0.0600771  
H68      H      0.553900000000     0.939730000000     0.306210000000     0.0488678  
H69      H      0.580720000000     0.016260000000     0.256500000000     0.0441485  
H70      H      0.502900000000     0.082370000000     0.253910000000     0.0514393  
H71      H      0.388650000000     0.030080000000     0.325530000000     0.0989965  
H72      H      0.427460000000     0.085560000000     0.316600000000     0.102448   
H73      H      0.742490000000     0.562260000000     0.522150000000     0.0474302  
H74      H      0.804970000000     0.572470000000     0.450070000000     0.0471433  
H75      H      0.737370000000     0.462320000000     0.553690000000     0.0258447  
H76      H      0.804850000000     0.415990000000     0.508320000000     0.0593998  
H77      H      0.708450000000     0.577360000000     0.462480000000     0.0404484  
H78      H      0.770540000000     0.524960000000     0.411390000000     0.0464608  
H79      H      0.774620000000     0.426300000000     0.446200000000     0.0518225  
H80      H      0.666460000000     0.407680000000     0.535530000000     0.0963016  
H81      H      0.685760000000     0.397770000000     0.471530000000     0.102706   
H82      H      0.266170000000     0.436000000000     0.562090000000     0.0445529  
H83      H      0.214820000000     0.412500000000     0.485070000000     0.0470072  
H84      H      0.257880000000     0.534990000000     0.575950000000     0.0265872  
H85      H      0.207500000000     0.578120000000     0.507090000000     0.0600457  
H86      H      0.310020000000     0.413300000000     0.511990000000     0.0436809  
H87      H      0.255780000000     0.451330000000     0.443290000000     0.0460766  
H88      H      0.251900000000     0.554610000000     0.458420000000     0.053322   
H89      H      0.335530000000     0.588410000000     0.569550000000     0.0965765  
H90      H      0.320230000000     0.603120000000     0.505000000000     0.103141   
H91      H      0.770010000000     0.562000000000     0.957770000000     0.0450976  
H92      H      0.713280000000     0.576210000000     0.033640000000     0.048109   
H93      H      0.767710000000     0.464860000000     0.928970000000     0.0244086  
H94      H      0.705370000000     0.417720000000     0.981320000000     0.0581105  
H95      H      0.808830000000     0.578340000000     0.014240000000     0.0425081  
H96      H      0.749640000000     0.529810000000     0.071760000000     0.047139   
H97      H      0.742020000000     0.428980000000     0.039790000000     0.0519363  
H98      H      0.841200000000     0.409110000000     0.939660000000     0.0953857  
H99      H      0.821910000000     0.392460000000     0.002540000000     0.102591   
H100     H      0.243610000000     0.450820000000     0.979310000000     0.0485694  
H101     H      0.305020000000     0.432310000000     0.050790000000     0.0474501  
H102     H      0.237820000000     0.555090000000     0.958530000000     0.0250553  
H103     H      0.308290000000     0.593020000000     0.005830000000     0.0592194  
H104     H      0.209470000000     0.430030000000     0.037180000000     0.041937   
H105     H      0.271600000000     0.477450000000     0.093100000000     0.0459316  
H106     H      0.279620000000     0.578340000000     0.067750000000     0.0513482  
H107     H      0.169370000000     0.608560000000     0.985240000000     0.0977003  
H108     H      0.189190000000     0.608530000000     0.049920000000     0.102585   
H109     H      0.067300000000     0.442210000000     0.756990000000     0.0449942  
H110     H      0.088650000000     0.515480000000     0.699700000000     0.0487437  
H111     H      0.968210000000     0.426930000000     0.757410000000     0.0251575  
H112     H      0.923450000000     0.487370000000     0.700090000000     0.0609281  
H113     H      0.092880000000     0.495220000000     0.795260000000     0.0455553  
H114     H      0.050030000000     0.559100000000     0.738750000000     0.0467811  
H115     H      0.945590000000     0.541780000000     0.737710000000     0.0531983  
H116     H      0.917570000000     0.441320000000     0.835100000000     0.0962575  
H117     H      0.904430000000     0.504890000000     0.815780000000     0.103907   
H118     H      0.940200000000     0.529960000000     0.238500000000     0.0439483  
H119     H      0.005270000000     0.570740000000     0.294230000000     0.0491708  
H120     H      0.950760000000     0.427890000000     0.241190000000     0.0245778  
H121     H      0.022720000000     0.404690000000     0.298900000000     0.0592215  
H122     H      0.984580000000     0.566440000000     0.198900000000     0.0464007  
H123     H      0.057140000000     0.543670000000     0.256060000000     0.0464695  
H124     H      0.068650000000     0.439790000000     0.259130000000     0.0541393  
H125     H      0.975500000000     0.374920000000     0.172170000000     0.103401   
H126     H      0.040210000000     0.394870000000     0.173700000000     0.0963166  
H127     H      0.958990000000     0.761480000000     0.427140000000     0.0431468  
H128     H      0.922640000000     0.695860000000     0.483270000000     0.0477445  
H129     H      0.062840000000     0.760020000000     0.442370000000     0.0252406  
H130     H      0.086680000000     0.701970000000     0.514530000000     0.0580095  
H131     H      0.920700000000     0.794350000000     0.475390000000     0.0445954  
H132     H      0.941590000000     0.730510000000     0.540870000000     0.0447862  
H133     H      0.045460000000     0.737330000000     0.559140000000     0.0543054  
H134     H      0.112070000000     0.829540000000     0.471940000000     0.103424   
H135     H      0.088660000000     0.825650000000     0.535550000000     0.0947738  
H136     H      0.034400000000     0.231910000000     0.439000000000     0.0441962  
H137     H      0.081300000000     0.288790000000     0.497880000000     0.048212   
H138     H      0.932020000000     0.241400000000     0.459310000000     0.0252126  
H139     H      0.918100000000     0.299040000000     0.534130000000     0.0589297  
H140     H      0.071810000000     0.192380000000     0.482670000000     0.0459051  
H141     H      0.058930000000     0.253190000000     0.553740000000     0.0453973  
H142     H      0.957310000000     0.258110000000     0.575610000000     0.0538276  
H143     H      0.878000000000     0.175770000000     0.489430000000     0.102985   
H144     H      0.904930000000     0.175260000000     0.551740000000     0.0947982  
H145     H      0.745760000000     0.943960000000     0.458920000000     0.0431489  
H146     H      0.693500000000     0.014370000000     0.422980000000     0.0469247  
H147     H      0.745950000000     0.951150000000     0.562900000000     0.0238827  
H148     H      0.695940000000     0.027350000000     0.590490000000     0.0572933  
H149     H      0.787520000000     0.987130000000     0.423350000000     0.0450832  
H150     H      0.736330000000     0.061970000000     0.450840000000     0.0449099  
H151     H      0.738260000000     0.070110000000     0.554210000000     0.0523584  
H152     H      0.818470000000     0.968100000000     0.614530000000     0.102968   
H153     H      0.821380000000     0.033330000000     0.597080000000     0.0944874  
H154     H      0.260850000000     0.070220000000     0.557800000000     0.041608   
H155     H      0.193730000000     0.014230000000     0.589110000000     0.0465586  
H156     H      0.250950000000     0.067930000000     0.453780000000     0.0243765  
H157     H      0.194110000000     0.997600000000     0.422440000000     0.0594107  
H158     H      0.294000000000     0.016790000000     0.587610000000     0.0445881  
H159     H      0.226000000000     0.957330000000     0.565300000000     0.0432966  
H160     H      0.231880000000     0.950050000000     0.457660000000     0.0542963  
H161     H      0.317440000000     0.047610000000     0.395990000000     0.100198   
H162     H      0.316000000000     0.981410000000     0.409970000000     0.0948156  
H163     H      0.940310000000     0.758420000000     0.042560000000     0.0447907  
H164     H      0.007640000000     0.700000000000     0.076950000000     0.0478233  
H165     H      0.940410000000     0.759290000000     0.941270000000     0.0241424  
H166     H      0.001130000000     0.695550000000     0.909280000000     0.0594514  
H167     H      0.990310000000     0.794830000000     0.075950000000     0.0446566  
H168     H      0.057970000000     0.735680000000     0.043500000000     0.0454232  
H169     H      0.055530000000     0.729600000000     0.936630000000     0.0510813  
H170     H      0.968450000000     0.832420000000     0.891700000000     0.0988858  
H171     H      0.032890000000     0.811250000000     0.893050000000     0.103525   
H172     H      0.956360000000     0.238980000000     0.053080000000     0.0428932  
H173     H      0.928060000000     0.294790000000     0.981970000000     0.0451541  
H174     H      0.060230000000     0.240710000000     0.056950000000     0.023617   
H175     H      0.095530000000     0.293520000000     0.985620000000     0.0577585  
H176     H      0.926520000000     0.199420000000     0.003840000000     0.0444238  
H177     H      0.960680000000     0.254710000000     0.934920000000     0.0441745  
H178     H      0.064210000000     0.252930000000     0.937480000000     0.0535     
H179     H      0.115100000000     0.170340000000     0.043080000000     0.103092   
H180     H      0.104560000000     0.169160000000     0.975850000000     0.0973146  
H181     H      0.764670000000     0.003620000000     0.063510000000     0.0444344  
H182     H      0.708540000000     0.928590000000     0.046550000000     0.0490609  
H183     H      0.761560000000     0.070740000000     0.982190000000     0.0238832  
H184     H      0.698600000000     0.038160000000     0.919700000000     0.0605855  
H185     H      0.802020000000     0.945500000000     0.055240000000     0.0501241  
H186     H      0.743070000000     0.914630000000     0.987000000000     0.0440698  
H187     H      0.734980000000     0.979480000000     0.910150000000     0.050912   
H188     H      0.824570000000     0.088470000000     0.920370000000     0.103809   
H189     H      0.820860000000     0.026690000000     0.891620000000     0.100935   
H190     H      0.265330000000     0.922640000000     0.018770000000     0.0412517  
H191     H      0.210220000000     0.932010000000     0.942140000000     0.0473221  
H192     H      0.255750000000     0.005820000000     0.077160000000     0.0234917  
H193     H      0.200080000000     0.071340000000     0.034980000000     0.0592073  
H194     H      0.305110000000     0.925970000000     0.961600000000     0.0465643  
H195     H      0.246230000000     0.988130000000     0.920630000000     0.0435671  
H196     H      0.241470000000     0.071840000000     0.978670000000     0.0503365  
H197     H      0.320780000000     0.065570000000     0.098220000000     0.103886   
H198     H      0.318100000000     0.095960000000     0.036790000000     0.101174   
H199     H      0.927680000000     0.035650000000     0.733360000000     0.0402854  
H200     H      0.982390000000     0.082910000000     0.793180000000     0.0474237  
H201     H      0.953250000000     0.935560000000     0.741770000000     0.0228144  
H202     H      0.030740000000     0.922860000000     0.796360000000     0.0588358  
H203     H      0.969470000000     0.076290000000     0.695170000000     0.0446444  
H204     H      0.039950000000     0.066940000000     0.756910000000     0.0449055  
H205     H      0.068100000000     0.966260000000     0.755840000000     0.0535066  
H206     H      0.983970000000     0.882790000000     0.675150000000     0.103135   
H207     H      0.045240000000     0.912080000000     0.673390000000     0.0963198  
H208     H      0.944680000000     0.949730000000     0.236920000000     0.0450886  
H209     H      0.916250000000     0.023540000000     0.290640000000     0.046764   
H210     H      0.046270000000     0.939410000000     0.242530000000     0.0255567  
H211     H      0.082300000000     0.003530000000     0.302090000000     0.0593388  
H212     H      0.919530000000     0.000820000000     0.195850000000     0.0451775  
H213     H      0.956460000000     0.067550000000     0.253330000000     0.0458484  
H214     H      0.059020000000     0.055750000000     0.262050000000     0.0516004  
H215     H      0.101320000000     0.956280000000     0.169200000000     0.0986801  
H216     H      0.106380000000     0.021680000000     0.186050000000     0.103355   
N1       N      0.521230000000     0.513730000000     0.705110000000    -0.17021    
N2       N      0.498280000000     0.507230000000     0.812000000000    -0.153119   
N3       N      0.497780000000     0.606310000000     0.704830000000    -0.198043   
N4       N      0.482660000000     0.516340000000     0.312800000000    -0.170369   
N5       N      0.512230000000     0.507440000000     0.207610000000    -0.152642   
N6       N      0.499510000000     0.610500000000     0.310630000000    -0.197888   
N7       N      0.501760000000     0.813570000000     0.505890000000    -0.169724   
N8       N      0.501710000000     0.705200000000     0.521780000000    -0.154986   
N9       N      0.596370000000     0.815190000000     0.523040000000    -0.197423   
N10      N      0.490100000000     0.204520000000     0.508940000000    -0.171301   
N11      N      0.518440000000     0.309440000000     0.509690000000    -0.154969   
N12      N      0.485800000000     0.204410000000     0.605840000000    -0.197454   
N13      N      0.489580000000     0.803620000000     0.034200000000    -0.171801   
N14      N      0.515500000000     0.702620000000     0.003350000000    -0.154769   
N15      N      0.408360000000     0.798600000000     0.980760000000    -0.196465   
N16      N      0.499300000000     0.305360000000     0.995510000000    -0.169352   
N17      N      0.509760000000     0.196070000000     0.007690000000    -0.153627   
N18      N      0.567990000000     0.302290000000     0.926650000000    -0.197074   
N19      N      0.501410000000     0.983390000000     0.810450000000    -0.170511   
N20      N      0.482330000000     0.003090000000     0.703810000000    -0.155148   
N21      N      0.434600000000     0.913200000000     0.808510000000    -0.197112   
N22      N      0.488240000000     0.993090000000     0.307850000000    -0.171468   
N23      N      0.516410000000     0.017620000000     0.204860000000    -0.154262   
N24      N      0.411390000000     0.052120000000     0.299860000000    -0.196998   
N25      N      0.701410000000     0.498880000000     0.489260000000    -0.169833   
N26      N      0.810210000000     0.493350000000     0.476480000000    -0.15337    
N27      N      0.697980000000     0.405720000000     0.509690000000    -0.197626   
N28      N      0.310460000000     0.495600000000     0.526420000000    -0.170217   
N29      N      0.206520000000     0.495370000000     0.492560000000    -0.152873   
N30      N      0.306210000000     0.590610000000     0.541250000000    -0.197454   
N31      N      0.811430000000     0.498560000000     0.990010000000    -0.171188   
N32      N      0.704360000000     0.495930000000     0.011630000000    -0.153083   
N33      N      0.810030000000     0.405630000000     0.965760000000    -0.197756   
N34      N      0.202950000000     0.510920000000     0.018510000000    -0.169851   
N35      N      0.312140000000     0.513170000000     0.030740000000    -0.152991   
N36      N      0.201000000000     0.606010000000     0.010880000000    -0.197635   
N37      N      0.010440000000     0.481570000000     0.801980000000    -0.16973    
N38      N      0.005390000000     0.505590000000     0.694720000000    -0.151656   
N39      N      0.914920000000     0.467440000000     0.803900000000    -0.197155   
N40      N      0.991510000000     0.482790000000     0.194840000000    -0.169605   
N41      N      0.017410000000     0.488020000000     0.301600000000    -0.151991   
N42      N      0.006290000000     0.388190000000     0.195360000000    -0.197492   
N43      N      0.003990000000     0.801670000000     0.482860000000    -0.169743   
N44      N      0.004340000000     0.694000000000     0.502610000000    -0.153256   
N45      N      0.098080000000     0.805210000000     0.501490000000    -0.197695   
N46      N      0.988570000000     0.192840000000     0.494980000000    -0.169718   
N47      N      0.000440000000     0.298770000000     0.518540000000    -0.153538   
N48      N      0.895740000000     0.197650000000     0.518880000000    -0.197825   
N49      N      0.793890000000     0.989600000000     0.507500000000    -0.170907   
N50      N      0.690180000000     0.023230000000     0.506790000000    -0.154289   
N51      N      0.797430000000     0.000990000000     0.603160000000    -0.197943   
N52      N      0.296620000000     0.020170000000     0.503490000000    -0.171383   
N53      N      0.188910000000     0.000660000000     0.506350000000    -0.154406   
N54      N      0.294600000000     0.015910000000     0.407250000000    -0.198065   
N55      N      0.990410000000     0.800290000000     0.992080000000    -0.170553   
N56      N      0.009040000000     0.692490000000     0.993060000000    -0.153425   
N57      N      0.993610000000     0.800650000000     0.895360000000    -0.197437   
N58      N      0.010270000000     0.193920000000     0.010460000000    -0.171162   
N59      N      0.012080000000     0.298680000000     0.981560000000    -0.15502    
N60      N      0.106570000000     0.192010000000     0.009610000000    -0.198048   
N61      N      0.805990000000     0.001860000000     0.991830000000    -0.169978   
N62      N      0.697970000000     0.983200000000     0.983430000000    -0.154488   
N63      N      0.801300000000     0.056240000000     0.911730000000    -0.197094   
N64      N      0.306190000000     0.993890000000     0.012480000000    -0.171276   
N65      N      0.199680000000     0.001780000000     0.987220000000    -0.155287   
N66      N      0.298270000000     0.074690000000     0.065410000000    -0.197507   
N67      N      0.986050000000     0.993950000000     0.693290000000    -0.17116    
N68      N      0.009710000000     0.003990000000     0.799910000000    -0.154388   
N69      N      0.013080000000     0.901870000000     0.696330000000    -0.197806   
N70      N      0.002920000000     0.990520000000     0.194900000000    -0.171327   
N71      N      0.999050000000     0.015650000000     0.301030000000    -0.154318   
N72      N      0.099150000000     0.983860000000     0.199140000000    -0.197372   
O1       O      0.003280000000     0.997380000000     0.996990000000    -0.370896   
O2       O      0.966960000000     0.970780000000     0.116200000000    -0.308047   
O3       O      0.122230000000     0.025510000000     0.022450000000    -0.314629   
O4       O      0.024500000000     0.876660000000     0.961940000000    -0.309935   
O5       O      0.040000000000     0.016450000000     0.117920000000    -0.311063   
O6       O      0.969960000000     0.878440000000     0.028940000000    -0.305213   
O7       O      0.122680000000     0.962800000000     0.963400000000    -0.302608   
O8       O      0.981480000000     0.038640000000     0.877510000000    -0.303053   
O9       O      0.039030000000     0.113360000000     0.033840000000    -0.31064    
O10      O      0.030060000000     0.967470000000     0.878070000000    -0.308481   
O11      O      0.974590000000     0.120090000000     0.976750000000    -0.306121   
O12      O      0.885710000000     0.031760000000     0.963430000000    -0.309816   
O13      O      0.883120000000     0.970140000000     0.023160000000    -0.307706   
O14      O      0.991200000000     0.997190000000     0.496750000000    -0.373039   
O15      O      0.957450000000     0.030230000000     0.378400000000    -0.30284    
O16      O      0.112710000000     0.979560000000     0.466890000000    -0.309938   
O17      O      0.024640000000     0.115960000000     0.519830000000    -0.303318   
O18      O      0.029020000000     0.981930000000     0.377420000000    -0.305466   
O19      O      0.950860000000     0.114910000000     0.474380000000    -0.305017   
O20      O      0.109630000000     0.022590000000     0.541550000000    -0.301827   
O21      O      0.972720000000     0.954980000000     0.614260000000    -0.310856   
O22      O      0.032930000000     0.883060000000     0.462020000000    -0.30703    
O23      O      0.006110000000     0.034410000000     0.616660000000    -0.30594    
O24      O      0.964030000000     0.874530000000     0.513900000000    -0.303748   
O25      O      0.874490000000     0.964690000000     0.536180000000    -0.307977   
O26      O      0.868240000000     0.017340000000     0.468000000000    -0.307047   
O27      O      0.007850000000     0.494960000000     0.998420000000    -0.371266   
O28      O      0.887350000000     0.461290000000     0.016570000000    -0.309467   
O29      O      0.989410000000     0.613900000000     0.955730000000    -0.301653   
O30      O      0.020300000000     0.523020000000     0.121120000000    -0.304293   
O31      O      0.890310000000     0.533870000000     0.969880000000    -0.305083   
O32      O      0.973790000000     0.450680000000     0.113050000000    -0.3046     
O33      O      0.022100000000     0.615890000000     0.035710000000    -0.305918   
O34      O      0.131640000000     0.473020000000     0.982300000000    -0.305229   
O35      O      0.975580000000     0.511990000000     0.878210000000    -0.308315   
O36      O      0.120410000000     0.536890000000     0.039620000000    -0.305062   
O37      O      0.050600000000     0.469150000000     0.880840000000    -0.300482   
O38      O      0.050470000000     0.377860000000     0.970100000000    -0.302616   
O39      O      0.974010000000     0.373310000000     0.009890000000    -0.309348   
O40      O      0.007710000000     0.495590000000     0.497910000000    -0.365826   
O41      O      0.969550000000     0.380010000000     0.536410000000    -0.301454   
O42      O      0.034840000000     0.452810000000     0.381860000000    -0.297246   
O43      O      0.890160000000     0.526780000000     0.456230000000    -0.301519   
O44      O      0.036760000000     0.371570000000     0.482830000000    -0.3015     
O45      O      0.884240000000     0.467300000000     0.518370000000    -0.302114   
O46      O      0.991520000000     0.527690000000     0.377160000000    -0.299027   
O47      O      0.040890000000     0.616530000000     0.526320000000    -0.300778   
O48      O      0.128600000000     0.457220000000     0.471500000000    -0.298898   
O49      O      0.975090000000     0.616610000000     0.470440000000    -0.302245   
O50      O      0.128930000000     0.528220000000     0.520300000000    -0.303545   
O51      O      0.043010000000     0.524030000000     0.615880000000    -0.299292   
O52      O      0.968390000000     0.479990000000     0.617470000000    -0.298526   
O53      O      0.503870000000     0.998520000000     0.008610000000    -0.371242   
O54      O      0.384520000000     0.966660000000     0.980130000000    -0.312326   
O55      O      0.478100000000     0.035190000000     0.126440000000    -0.306748   
O56      O      0.528960000000     0.881390000000     0.053020000000    -0.305655   
O57      O      0.384460000000     0.027730000000     0.040380000000    -0.311936   
O58      O      0.469040000000     0.878970000000     0.991540000000    -0.31596    
O59      O      0.545360000000     0.981380000000     0.128470000000    -0.303005   
O60      O      0.619920000000     0.021740000000     0.965800000000    -0.305282   
O61      O      0.474180000000     0.119300000000     0.035220000000    -0.305517   
O62      O      0.623810000000     0.962370000000     0.028330000000    -0.304307   
O63      O      0.535790000000     0.117380000000     0.974770000000    -0.302578   
O64      O      0.525690000000     0.024600000000     0.885930000000    -0.307398   
O65      O      0.474460000000     0.956240000000     0.891700000000    -0.313805   
O66      O      0.493120000000     0.008960000000     0.506070000000    -0.372515   
O67      O      0.522810000000     0.970790000000     0.387350000000    -0.307129   
O68      O      0.376330000000     0.042550000000     0.471400000000    -0.311548   
O69      O      0.458820000000     0.888920000000     0.525600000000    -0.303044   
O70      O      0.464400000000     0.033160000000     0.384270000000    -0.315912   
O71      O      0.535700000000     0.893170000000     0.485980000000    -0.308851   
O72      O      0.371460000000     0.984860000000     0.535490000000    -0.304896   
O73      O      0.515840000000     0.035580000000     0.628110000000    -0.309328   
O74      O      0.469900000000     0.127740000000     0.469570000000    -0.307507   
O75      O      0.458570000000     0.971640000000     0.623610000000    -0.304029   
O76      O      0.515990000000     0.126540000000     0.542810000000    -0.3103     
O77      O      0.611250000000     0.039800000000     0.544570000000    -0.302814   
O78      O      0.614390000000     0.993030000000     0.471870000000    -0.306126   
O79      O      0.507620000000     0.504390000000     0.009640000000    -0.36695    
O80      O      0.390590000000     0.474720000000     0.047100000000    -0.301183   
O81      O      0.479550000000     0.625150000000     0.979450000000    -0.306398   
O82      O      0.535770000000     0.540520000000     0.128320000000    -0.301452   
O83      O      0.387370000000     0.541690000000     0.992450000000    -0.299849   
O84      O      0.487370000000     0.469050000000     0.130900000000    -0.299875   
O85      O      0.544790000000     0.625070000000     0.035440000000    -0.305576   
O86      O      0.625760000000     0.468810000000     0.979710000000    -0.302845   
O87      O      0.471950000000     0.537710000000     0.891530000000    -0.300249   
O88      O      0.627910000000     0.532300000000     0.038410000000    -0.302609   
O89      O      0.532260000000     0.475880000000     0.888050000000    -0.303028   
O90      O      0.532320000000     0.385020000000     0.972030000000    -0.311755   
O91      O      0.475750000000     0.381580000000     0.036260000000    -0.303417   
O92      O      0.506080000000     0.507240000000     0.508770000000    -0.368876   
O93      O      0.383910000000     0.533890000000     0.494620000000    -0.308384   
O94      O      0.492920000000     0.385790000000     0.546990000000    -0.305607   
O95      O      0.517570000000     0.479550000000     0.385410000000    -0.305173   
O96      O      0.391670000000     0.464370000000     0.545510000000    -0.300485   
O97      O      0.465690000000     0.548080000000     0.394650000000    -0.305027   
O98      O      0.529050000000     0.387290000000     0.468730000000    -0.306948   
O99      O      0.629020000000     0.535650000000     0.524830000000    -0.303625   
O100     O      0.489230000000     0.477300000000     0.630980000000    -0.304115   
O101     O      0.619930000000     0.472860000000     0.465720000000    -0.305307   
O102     O      0.544680000000     0.543340000000     0.624370000000    -0.305343   
O103     O      0.543420000000     0.627680000000     0.532150000000    -0.306768   
O104     O      0.465540000000     0.628320000000     0.495470000000    -0.307751   
Zn1      Zn     0.957570000000     0.955340000000     0.040170000000     0.453613   
Zn2      Zn     0.049120000000     0.036550000000     0.042250000000     0.455171   
Zn3      Zn     0.044550000000     0.951650000000     0.952600000000     0.45042    
Zn4      Zn     0.962500000000     0.045770000000     0.954520000000     0.447209   
Zn5      Zn     0.942710000000     0.038400000000     0.455540000000     0.448962   
Zn6      Zn     0.039400000000     0.960940000000     0.451880000000     0.456128   
Zn7      Zn     0.032130000000     0.041270000000     0.542510000000     0.447593   
Zn8      Zn     0.951760000000     0.948540000000     0.538700000000     0.446788   
Zn9      Zn     0.962230000000     0.446350000000     0.034070000000     0.448443   
Zn10     Zn     0.967050000000     0.538130000000     0.951910000000     0.447804   
Zn11     Zn     0.041490000000     0.541320000000     0.047680000000     0.449512   
Zn12     Zn     0.059280000000     0.455370000000     0.959040000000     0.448681   
Zn13     Zn     0.958590000000     0.457540000000     0.541820000000     0.44927    
Zn14     Zn     0.050740000000     0.445330000000     0.459610000000     0.445617   
Zn15     Zn     0.967640000000     0.540760000000     0.451610000000     0.448494   
Zn16     Zn     0.053940000000     0.539730000000     0.538930000000     0.44942    
Zn17     Zn     0.459910000000     0.952010000000     0.968480000000     0.455728   
Zn18     Zn     0.460600000000     0.043770000000     0.050820000000     0.452221   
Zn19     Zn     0.549620000000     0.957260000000     0.053520000000     0.45151    
Zn20     Zn     0.544410000000     0.040500000000     0.960470000000     0.453376   
Zn21     Zn     0.540560000000     0.968000000000     0.464090000000     0.451386   
Zn22     Zn     0.452950000000     0.052190000000     0.458920000000     0.452729   
Zn23     Zn     0.446610000000     0.964200000000     0.546020000000     0.449542   
Zn24     Zn     0.533480000000     0.051170000000     0.553990000000     0.452188   
Zn25     Zn     0.467180000000     0.457960000000     0.054780000000     0.44624    
Zn26     Zn     0.462340000000     0.550200000000     0.969140000000     0.45167    
Zn27     Zn     0.552550000000     0.549240000000     0.051740000000     0.452131   
Zn28     Zn     0.548940000000     0.460430000000     0.963600000000     0.450058   
Zn29     Zn     0.456910000000     0.553340000000     0.473880000000     0.445153   
Zn30     Zn     0.470500000000     0.459970000000     0.556570000000     0.448242   
Zn31     Zn     0.541830000000     0.463410000000     0.458170000000     0.450101   
Zn32     Zn     0.554990000000     0.551910000000     0.546080000000     0.447955   


