data_structure

_audit_creation_method RASPA-1.0
_audit_creation_date 2023-5-22
_audit_author_name 'Poobodin Mano'

_cell_length_a    34.8005
_cell_length_b    34.7146
_cell_length_c    49.7377
_cell_angle_alpha 89.9998
_cell_angle_beta  89.9998
_cell_angle_gamma 90
_cell_volume      60087.4

_symmetry_cell_setting          triclinic
_symmetry_space_group_name_Hall 'P 1'
_symmetry_space_group_name_H-M  'P 1'
_symmetry_Int_Tables_number     1

_symmetry_equiv_pos_as_xyz 'x,y,z'

loop_
_atom_site_label
_atom_site_type_symbol
_atom_site_fract_x
_atom_site_fract_y
_atom_site_fract_z
_atom_site_charge
C1       C      0.937450000000     0.084420000000     0.094330000000     0.363548   
C2       C      0.006160000000     0.995640000000     0.035520000000     0.360377   
C3       C      0.087840000000     0.082350000000     0.096100000000     0.353514   
C4       C      0.082330000000     0.930820000000     0.117810000000     0.365973   
C5       C      0.933250000000     0.934940000000     0.120140000000     0.368731   
C6       C      0.005200000000     0.024700000000     0.180000000000     0.363605   
C7       C      0.004230000000     0.019320000000     0.425040000000     0.362782   
C8       C      0.942360000000     0.082740000000     0.328900000000     0.367029   
C9       C      0.081540000000     0.095700000000     0.354010000000     0.374868   
C10      C      0.031110000000     0.997710000000     0.280580000000     0.365281   
C11      C      0.933570000000     0.943210000000     0.360430000000     0.359989   
C12      C      0.088030000000     0.942040000000     0.362910000000     0.362165   
C13      C      0.194270000000     0.182530000000     0.055220000000     0.356511   
C14      C      0.350760000000     0.180170000000     0.046110000000     0.369211   
C15      C      0.272090000000     0.250940000000     0.478730000000     0.359309   
C16      C      0.347600000000     0.334930000000     0.043050000000     0.363627   
C17      C      0.279330000000     0.250210000000     0.122980000000     0.359737   
C18      C      0.200300000000     0.331500000000     0.060850000000     0.361741   
C19      C      0.200130000000     0.172590000000     0.323010000000     0.365741   
C20      C      0.250170000000     0.248460000000     0.233000000000     0.364764   
C21      C      0.180510000000     0.316880000000     0.317250000000     0.35945    
C22      C      0.330610000000     0.329090000000     0.286020000000     0.363254   
C23      C      0.337330000000     0.176990000000     0.293840000000     0.359032   
C24      C      0.288160000000     0.269950000000     0.375330000000     0.36619    
C25      C      0.249780000000     0.748740000000     0.238930000000     0.361952   
C26      C      0.190850000000     0.833020000000     0.155030000000     0.361576   
C27      C      0.326010000000     0.838000000000     0.179080000000     0.368154   
C28      C      0.280530000000     0.755570000000     0.090930000000     0.363863   
C29      C      0.184970000000     0.684540000000     0.152350000000     0.354744   
C30      C      0.337920000000     0.685420000000     0.175190000000     0.36019    
C31      C      0.266580000000     0.776920000000     0.343310000000     0.359493   
C32      C      0.179990000000     0.688680000000     0.398960000000     0.364849   
C33      C      0.322310000000     0.690590000000     0.427320000000     0.359196   
C34      C      0.235670000000     0.761680000000     0.989370000000     0.361594   
C35      C      0.168700000000     0.834090000000     0.409910000000     0.365366   
C36      C      0.322880000000     0.841460000000     0.429680000000     0.358139   
C37      C      0.435310000000     0.103190000000     0.982340000000     0.366206   
C38      C      0.491010000000     0.019540000000     0.046920000000     0.361178   
C39      C      0.432390000000     0.949030000000     0.465270000000     0.359461   
C40      C      0.574670000000     0.945630000000     0.463930000000     0.359478   
C41      C      0.589810000000     0.085340000000     0.990910000000     0.360404   
C42      C      0.504410000000     0.041720000000     0.403110000000     0.361074   
C43      C      0.426500000000     0.088330000000     0.233240000000     0.358612   
C44      C      0.433430000000     0.944340000000     0.207140000000     0.364974   
C45      C      0.513880000000     0.041420000000     0.149080000000     0.365528   
C46      C      0.575770000000     0.938890000000     0.211330000000     0.363086   
C47      C      0.505700000000     0.016190000000     0.293030000000     0.363031   
C48      C      0.581390000000     0.091380000000     0.231790000000     0.361398   
C49      C      0.828970000000     0.827030000000     0.160460000000     0.364443   
C50      C      0.824710000000     0.676190000000     0.152280000000     0.36344    
C51      C      0.769600000000     0.749870000000     0.241250000000     0.357055   
C52      C      0.681440000000     0.675960000000     0.173490000000     0.362737   
C53      C      0.742650000000     0.769020000000     0.096910000000     0.361776   
C54      C      0.678500000000     0.823360000000     0.185460000000     0.360866   
C55      C      0.835660000000     0.837850000000     0.402480000000     0.361687   
C56      C      0.684630000000     0.847510000000     0.426500000000     0.358232   
C57      C      0.731730000000     0.774420000000     0.340820000000     0.361472   
C58      C      0.680040000000     0.694300000000     0.425070000000     0.355804   
C59      C      0.764060000000     0.768440000000     0.986040000000     0.360431   
C60      C      0.825430000000     0.694120000000     0.398960000000     0.359393   
C61      C      0.695980000000     0.337850000000     0.018390000000     0.36292    
C62      C      0.701660000000     0.191060000000     0.018090000000     0.358053   
C63      C      0.788440000000     0.259400000000     0.457210000000     0.361738   
C64      C      0.836300000000     0.191750000000     0.054540000000     0.36429    
C65      C      0.765740000000     0.285990000000     0.098100000000     0.362472   
C66      C      0.851020000000     0.339540000000     0.029990000000     0.363616   
C67      C      0.841670000000     0.337360000000     0.301470000000     0.366762   
C68      C      0.764560000000     0.248330000000     0.347350000000     0.359826   
C69      C      0.702570000000     0.343610000000     0.268500000000     0.362975   
C70      C      0.693380000000     0.196820000000     0.265260000000     0.364722   
C71      C      0.844300000000     0.188000000000     0.280670000000     0.36956    
C72      C      0.793550000000     0.271200000000     0.207070000000     0.362975   
C73      C      0.588820000000     0.449720000000     0.997220000000     0.362194   
C74      C      0.509950000000     0.502330000000     0.410220000000     0.361286   
C75      C      0.437930000000     0.434550000000     0.991490000000     0.362364   
C76      C      0.432600000000     0.586820000000     0.463830000000     0.361375   
C77      C      0.583510000000     0.593640000000     0.473250000000     0.35975    
C78      C      0.490170000000     0.531950000000     0.050740000000     0.363249   
C79      C      0.437400000000     0.431180000000     0.244300000000     0.368585   
C80      C      0.587320000000     0.424550000000     0.228640000000     0.365399   
C81      C      0.505580000000     0.497540000000     0.155790000000     0.360057   
C82      C      0.589120000000     0.576860000000     0.220170000000     0.363289   
C83      C      0.512810000000     0.515320000000     0.299070000000     0.36661    
C84      C      0.441870000000     0.575530000000     0.210660000000     0.363645   
C85      C      0.933960000000     0.419740000000     0.096060000000     0.361309   
C86      C      0.003270000000     0.472880000000     0.178680000000     0.360358   
C87      C      0.088740000000     0.435720000000     0.089850000000     0.362075   
C88      C      0.076440000000     0.574190000000     0.119980000000     0.355318   
C89      C      0.935600000000     0.571690000000     0.122280000000     0.362396   
C90      C      0.988720000000     0.505210000000     0.036490000000     0.36388    
C91      C      0.070600000000     0.424600000000     0.347220000000     0.35905    
C92      C      0.010910000000     0.486360000000     0.434370000000     0.369132   
C93      C      0.082500000000     0.573470000000     0.369840000000     0.365906   
C94      C      0.932210000000     0.582030000000     0.372810000000     0.360712   
C95      C      0.918800000000     0.440540000000     0.356580000000     0.364153   
C96      C      0.001000000000     0.504300000000     0.287820000000     0.364407   
C97      C      0.038300000000     0.483540000000     0.220400000000    -0.0135808  
C98      C      0.965060000000     0.483650000000     0.219210000000    -0.0138499  
C99      C      0.036350000000     0.474860000000     0.250280000000    -0.0131445  
C100     C      0.964930000000     0.476900000000     0.249600000000    -0.0129997  
C101     C      0.997950000000     0.453620000000     0.477650000000    -0.0133685  
C102     C      0.031320000000     0.517590000000     0.476450000000    -0.0112262  
C103     C      0.966420000000     0.471850000000     0.995230000000    -0.0127131  
C104     C      0.998800000000     0.536130000000     0.992520000000    -0.0135676  
C105     C      0.491510000000     0.480760000000     0.338900000000    -0.0127011  
C106     C      0.520710000000     0.547810000000     0.342930000000    -0.0125208  
C107     C      0.477820000000     0.488980000000     0.367400000000    -0.0130135  
C108     C      0.537010000000     0.532060000000     0.369490000000    -0.013964   
C109     C      0.459790000000     0.501110000000     0.089280000000    -0.0137289  
C110     C      0.499050000000     0.562260000000     0.095180000000    -0.0132995  
C111     C      0.457600000000     0.503520000000     0.119780000000    -0.0130823  
C112     C      0.520360000000     0.541040000000     0.117920000000    -0.0137718  
C113     C      0.888410000000     0.376230000000     0.359820000000    -0.0126555  
C114     C      0.856630000000     0.428370000000     0.333860000000    -0.0131679  
C115     C      0.893240000000     0.352490000000     0.334140000000    -0.0136638  
C116     C      0.860970000000     0.405590000000     0.307590000000    -0.0134527  
C117     C      0.635770000000     0.367470000000     0.273010000000    -0.0139446  
C118     C      0.682010000000     0.400880000000     0.241940000000    -0.0144401  
C119     C      0.607540000000     0.363400000000     0.249710000000    -0.0115028  
C120     C      0.652300000000     0.398480000000     0.219060000000    -0.0136161  
C121     C      0.800240000000     0.228070000000     0.387230000000    -0.0129991  
C122     C      0.752780000000     0.283350000000     0.388990000000    -0.013738   
C123     C      0.792020000000     0.219290000000     0.416630000000    -0.0123201  
C124     C      0.747630000000     0.275890000000     0.418960000000    -0.0138554  
C125     C      0.749210000000     0.259640000000     0.142530000000    -0.0133697  
C126     C      0.801040000000     0.310730000000     0.136850000000    -0.0133762  
C127     C      0.777390000000     0.243040000000     0.163040000000    -0.0139953  
C128     C      0.799370000000     0.312670000000     0.167530000000    -0.0142378  
C129     C      0.919030000000     0.356790000000     0.075380000000    -0.0130804  
C130     C      0.869420000000     0.409300000000     0.075830000000    -0.0150164  
C131     C      0.916620000000     0.355290000000     0.044720000000    -0.0108115  
C132     C      0.865710000000     0.405790000000     0.044880000000    -0.0140213  
C133     C      0.655070000000     0.425560000000     0.989830000000    -0.0137012  
C134     C      0.618450000000     0.406370000000     0.031140000000    -0.0142308  
C135     C      0.667590000000     0.383780000000     0.985990000000    -0.0136713  
C136     C      0.631040000000     0.364380000000     0.027450000000    -0.0130414  
C137     C      0.867530000000     0.663910000000     0.365130000000    -0.0133815  
C138     C      0.877920000000     0.651700000000     0.414550000000    -0.0139236  
C139     C      0.876900000000     0.621870000000     0.359010000000    -0.0129076  
C140     C      0.891030000000     0.610650000000     0.407900000000    -0.0137191  
C141     C      0.612710000000     0.678320000000     0.438100000000    -0.0146625  
C142     C      0.662800000000     0.626400000000     0.434940000000    -0.0133391  
C143     C      0.600340000000     0.662580000000     0.465880000000    -0.0141007  
C144     C      0.650840000000     0.611340000000     0.462590000000    -0.0125058  
C145     C      0.711510000000     0.742230000000     0.299130000000    -0.0138731  
C146     C      0.748130000000     0.804160000000     0.297670000000    -0.00949016 
C147     C      0.744900000000     0.722060000000     0.284050000000    -0.0152432  
C148     C      0.781940000000     0.784030000000     0.284040000000    -0.0138024  
C149     C      0.774890000000     0.796270000000     0.057720000000    -0.0135675  
C150     C      0.714700000000     0.755610000000     0.052030000000    -0.0138128  
C151     C      0.768150000000     0.805270000000     0.028070000000    -0.013609   
C152     C      0.735590000000     0.739700000000     0.027010000000    -0.0142678  
C153     C      0.851470000000     0.610250000000     0.157040000000    -0.0135674  
C154     C      0.868350000000     0.651140000000     0.116990000000    -0.0140393  
C155     C      0.893230000000     0.596590000000     0.158340000000    -0.0135749  
C156     C      0.910310000000     0.638300000000     0.118930000000    -0.0130426  
C157     C      0.614240000000     0.657980000000     0.183150000000    -0.0137725  
C158     C      0.665800000000     0.607480000000     0.181090000000    -0.0116242  
C159     C      0.604640000000     0.645400000000     0.212120000000    -0.0141215  
C160     C      0.656190000000     0.594910000000     0.209720000000    -0.0119052  
C161     C      0.611010000000     0.846150000000     0.183410000000    -0.0132679  
C162     C      0.653520000000     0.866510000000     0.221240000000    -0.013626   
C163     C      0.596490000000     0.887450000000     0.180400000000    -0.0140989  
C164     C      0.638770000000     0.907980000000     0.219240000000    -0.0139472  
C165     C      0.599180000000     0.159080000000     0.241750000000    -0.0143725  
C166     C      0.647140000000     0.104230000000     0.246630000000    -0.013087   
C167     C      0.624440000000     0.178410000000     0.263460000000    -0.0134876  
C168     C      0.676760000000     0.136130000000     0.243320000000    -0.0136623  
C169     C      0.540300000000     0.042290000000     0.332190000000    -0.0132302  
C170     C      0.468700000000     0.039300000000     0.332100000000    -0.0129757  
C171     C      0.541270000000     0.031620000000     0.361870000000    -0.0137759  
C172     C      0.468360000000     0.028690000000     0.361840000000    -0.0141879  
C173     C      0.498900000000     0.074240000000     0.105990000000    -0.0140331  
C174     C      0.537180000000     0.013360000000     0.106700000000    -0.0112252  
C175     C      0.468930000000     0.053840000000     0.088060000000    -0.0128567  
C176     C      0.505850000000     0.991900000000     0.091260000000    -0.0136706  
C177     C      0.622740000000     0.895790000000     0.474720000000    -0.0114779  
C178     C      0.591270000000     0.897780000000     0.429260000000    -0.011564   
C179     C      0.662230000000     0.893280000000     0.461120000000    -0.0140471  
C180     C      0.630110000000     0.890580000000     0.415550000000    -0.0139374  
C181     C      0.635530000000     0.166130000000     0.023480000000    -0.0137976  
C182     C      0.677610000000     0.142570000000     0.985550000000    -0.0150882  
C183     C      0.619740000000     0.125330000000     0.026540000000    -0.013345   
C184     C      0.659280000000     0.102380000000     0.987830000000    -0.0137046  
C185     C      0.131320000000     0.640910000000     0.412220000000    -0.0137486  
C186     C      0.143540000000     0.655720000000     0.363070000000    -0.0136658  
C187     C      0.125460000000     0.598790000000     0.404840000000    -0.0113486  
C188     C      0.138450000000     0.612920000000     0.356290000000    -0.0120177  
C189     C      0.420030000000     0.651670000000     0.445900000000    -0.0138995  
C190     C      0.371110000000     0.598750000000     0.441230000000    -0.0128294  
C191     C      0.387340000000     0.681580000000     0.445130000000    -0.014487   
C192     C      0.338940000000     0.627520000000     0.446000000000    -0.0123333  
C193     C      0.337300000000     0.903980000000     0.450360000000    -0.0137115  
C194     C      0.391430000000     0.858810000000     0.436970000000    -0.014605   
C195     C      0.368150000000     0.935060000000     0.447760000000    -0.0138049  
C196     C      0.413580000000     0.880320000000     0.459460000000    -0.0141469  
C197     C      0.236810000000     0.796560000000     0.300070000000    -0.0126355  
C198     C      0.299670000000     0.761690000000     0.300250000000    -0.014002   
C199     C      0.218590000000     0.765290000000     0.282320000000    -0.0138531  
C200     C      0.281870000000     0.730790000000     0.281860000000    -0.0131761  
C201     C      0.242390000000     0.795170000000     0.033230000000    -0.0136954  
C202     C      0.239070000000     0.723090000000     0.031520000000    -0.0139267  
C203     C      0.280740000000     0.792480000000     0.048230000000    -0.0130659  
C204     C      0.276980000000     0.720640000000     0.047340000000    -0.013927   
C205     C      0.115510000000     0.631390000000     0.108060000000    -0.0139452  
C206     C      0.110830000000     0.608080000000     0.156310000000    -0.0141181  
C207     C      0.155980000000     0.644670000000     0.116680000000    -0.0140715  
C208     C      0.124840000000     0.649240000000     0.162710000000    -0.0138255  
C209     C      0.387650000000     0.665900000000     0.207580000000    -0.0141824  
C210     C      0.358100000000     0.617280000000     0.176030000000    -0.0139319  
C211     C      0.425860000000     0.644550000000     0.206210000000    -0.013024   
C212     C      0.396560000000     0.596040000000     0.175110000000    -0.0131601  
C213     C      0.402540000000     0.904300000000     0.172520000000    -0.0131048  
C214     C      0.390380000000     0.891820000000     0.221940000000    -0.0138971  
C215     C      0.360110000000     0.897700000000     0.166710000000    -0.0123907  
C216     C      0.348730000000     0.881640000000     0.215140000000    -0.0121944  
C217     C      0.088700000000     0.355330000000     0.346490000000    -0.0135077  
C218     C      0.114850000000     0.400800000000     0.312200000000    -0.013438   
C219     C      0.127980000000     0.335190000000     0.348170000000    -0.0142973  
C220     C      0.154540000000     0.382590000000     0.314290000000    -0.0139851  
C221     C      0.397740000000     0.349510000000     0.280810000000    -0.0130176  
C222     C      0.346070000000     0.376810000000     0.250790000000    -0.0142405  
C223     C      0.417140000000     0.388600000000     0.281200000000    -0.0129951  
C224     C      0.368330000000     0.414930000000     0.249000000000    -0.0132197  
C225     C      0.410200000000     0.154640000000     0.248190000000    -0.0146932  
C226     C      0.360700000000     0.102240000000     0.249960000000    -0.012959   
C227     C      0.403630000000     0.162820000000     0.278360000000    -0.0141745  
C228     C      0.354180000000     0.110490000000     0.279860000000    -0.0121797  
C229     C      0.308030000000     0.233760000000     0.437190000000    -0.0136925  
C230     C      0.242930000000     0.265420000000     0.434610000000    -0.0142959  
C231     C      0.324590000000     0.264160000000     0.417850000000    -0.0134147  
C232     C      0.260770000000     0.296680000000     0.416940000000    -0.0104527  
C233     C      0.268250000000     0.285280000000     0.193000000000    -0.0133009  
C234     C      0.270270000000     0.212820000000     0.192710000000    -0.0131692  
C235     C      0.258660000000     0.285250000000     0.163190000000    -0.0138941  
C236     C      0.260380000000     0.212840000000     0.162830000000    -0.0136571  
C237     C      0.135200000000     0.358330000000     0.053730000000    -0.0137629  
C238     C      0.174550000000     0.377330000000     0.094340000000    -0.014525   
C239     C      0.119530000000     0.399460000000     0.052580000000    -0.0132955  
C240     C      0.157840000000     0.418080000000     0.092970000000    -0.0131903  
C241     C      0.371220000000     0.416260000000     0.004060000000    -0.014175   
C242     C      0.424020000000     0.366860000000     0.003480000000    -0.0121036  
C243     C      0.360330000000     0.403690000000     0.032970000000    -0.0133741  
C244     C      0.413690000000     0.354990000000     0.032130000000    -0.0113837  
C245     C      0.416840000000     0.164620000000     0.033150000000    -0.0101432  
C246     C      0.365140000000     0.115050000000     0.029850000000    -0.0143845  
C247     C      0.420050000000     0.166100000000     0.002520000000    -0.0121648  
C248     C      0.369350000000     0.115120000000     0.998890000000    -0.0144667  
C249     C      0.909240000000     0.169120000000     0.292680000000    -0.0125526  
C250     C      0.854110000000     0.121140000000     0.296060000000    -0.0135221  
C251     C      0.933450000000     0.132990000000     0.295280000000    -0.0130243  
C252     C      0.876020000000     0.106360000000     0.321000000000    -0.0130448  
C253     C      0.871200000000     0.929200000000     0.382810000000    -0.01444    
C254     C      0.905420000000     0.877280000000     0.357140000000    -0.0139921  
C255     C      0.866430000000     0.902110000000     0.406920000000    -0.0132922  
C256     C      0.899150000000     0.849760000000     0.380930000000    -0.0135533  
C257     C      0.107010000000     0.850270000000     0.387730000000    -0.0122498  
C258     C      0.143350000000     0.900420000000     0.413240000000    -0.0132641  
C259     C      0.110410000000     0.874110000000     0.361890000000    -0.0138101  
C260     C      0.147510000000     0.924100000000     0.387380000000    -0.0137554  
C261     C      0.106080000000     0.149810000000     0.327410000000    -0.0120929  
C262     C      0.136650000000     0.133960000000     0.371330000000    -0.0126974  
C263     C      0.141860000000     0.137150000000     0.312130000000    -0.0126996  
C264     C      0.174980000000     0.126720000000     0.356810000000    -0.01232    
C265     C      0.026230000000     0.052200000000     0.223240000000    -0.013776   
C266     C      0.981610000000     0.995550000000     0.222030000000    -0.0102061  
C267     C      0.055480000000     0.027120000000     0.238490000000    -0.0126916  
C268     C      0.011090000000     0.970560000000     0.236870000000    -0.0146785  
C269     C      0.965660000000     0.004030000000     0.465500000000    -0.0134098  
C270     C      0.036730000000     0.992710000000     0.464720000000    -0.0128258  
C271     C      0.968220000000     0.013480000000     0.995640000000    -0.0147047  
C272     C      0.040470000000     0.006950000000     0.993340000000    -0.0137415  
C273     C      0.913520000000     0.151690000000     0.095070000000    -0.0134642  
C274     C      0.893460000000     0.105530000000     0.058460000000    -0.014062   
C275     C      0.872990000000     0.169090000000     0.094420000000    -0.0134783  
C276     C      0.853190000000     0.122670000000     0.058550000000    -0.0127974  
C277     C      0.921310000000     0.873640000000     0.142340000000    -0.012854   
C278     C      0.865310000000     0.914270000000     0.125670000000    -0.0135846  
C279     C      0.892080000000     0.841200000000     0.141740000000    -0.0135034  
C280     C      0.843880000000     0.895180000000     0.149470000000    -0.0140942  
C281     C      0.096670000000     0.868860000000     0.140530000000    -0.0131243  
C282     C      0.145150000000     0.899040000000     0.109730000000    -0.0129514  
C283     C      0.127230000000     0.863860000000     0.162360000000    -0.0135919  
C284     C      0.175710000000     0.894450000000     0.131670000000    -0.0142294  
C285     C      0.107310000000     0.150690000000     0.088220000000    -0.0146009  
C286     C      0.156020000000     0.097290000000     0.086150000000    -0.0136141  
C287     C      0.124680000000     0.168400000000     0.062290000000    -0.0138901  
C288     C      0.172990000000     0.114870000000     0.060550000000    -0.0126885  
C289     C      0.937460000000     0.084420000000     0.594330000000     0.363724   
C290     C      0.006160000000     0.995640000000     0.535520000000     0.360406   
C291     C      0.087840000000     0.082350000000     0.596100000000     0.353508   
C292     C      0.082330000000     0.930820000000     0.617810000000     0.365708   
C293     C      0.933250000000     0.934940000000     0.620140000000     0.368727   
C294     C      0.005200000000     0.024700000000     0.680000000000     0.363607   
C295     C      0.004230000000     0.019320000000     0.925040000000     0.362782   
C296     C      0.942360000000     0.082740000000     0.828900000000     0.367027   
C297     C      0.081540000000     0.095700000000     0.854010000000     0.374679   
C298     C      0.031110000000     0.997710000000     0.780580000000     0.365294   
C299     C      0.933570000000     0.943210000000     0.860430000000     0.359966   
C300     C      0.088030000000     0.942040000000     0.862910000000     0.362264   
C301     C      0.194270000000     0.182530000000     0.555220000000     0.356467   
C302     C      0.350760000000     0.180170000000     0.546110000000     0.369197   
C303     C      0.272090000000     0.250940000000     0.978720000000     0.359215   
C304     C      0.347600000000     0.334930000000     0.543060000000     0.363635   
C305     C      0.279330000000     0.250210000000     0.622980000000     0.359741   
C306     C      0.200300000000     0.331500000000     0.560850000000     0.361736   
C307     C      0.200130000000     0.172590000000     0.823010000000     0.36574    
C308     C      0.250170000000     0.248460000000     0.733000000000     0.364764   
C309     C      0.180510000000     0.316880000000     0.817250000000     0.359454   
C310     C      0.330610000000     0.329090000000     0.786020000000     0.363199   
C311     C      0.337330000000     0.176990000000     0.793840000000     0.358972   
C312     C      0.288160000000     0.269950000000     0.875330000000     0.366188   
C313     C      0.249780000000     0.748740000000     0.738920000000     0.362067   
C314     C      0.190850000000     0.833020000000     0.655030000000     0.361453   
C315     C      0.326020000000     0.838000000000     0.679080000000     0.368107   
C316     C      0.280530000000     0.755570000000     0.590930000000     0.363842   
C317     C      0.184970000000     0.684540000000     0.652350000000     0.354741   
C318     C      0.337920000000     0.685430000000     0.675190000000     0.360195   
C319     C      0.266580000000     0.776920000000     0.843310000000     0.359578   
C320     C      0.179990000000     0.688690000000     0.898960000000     0.364685   
C321     C      0.322310000000     0.690590000000     0.927320000000     0.359194   
C322     C      0.235670000000     0.761680000000     0.489370000000     0.361755   
C323     C      0.168700000000     0.834090000000     0.909910000000     0.36536    
C324     C      0.322880000000     0.841460000000     0.929680000000     0.358013   
C325     C      0.435310000000     0.103190000000     0.482340000000     0.366212   
C326     C      0.491010000000     0.019540000000     0.546920000000     0.361179   
C327     C      0.432390000000     0.949030000000     0.965270000000     0.359308   
C328     C      0.574670000000     0.945630000000     0.963940000000     0.359366   
C329     C      0.589810000000     0.085340000000     0.490910000000     0.360785   
C330     C      0.504410000000     0.041720000000     0.903110000000     0.361075   
C331     C      0.426500000000     0.088330000000     0.733240000000     0.358612   
C332     C      0.433430000000     0.944340000000     0.707140000000     0.364905   
C333     C      0.513880000000     0.041420000000     0.649080000000     0.365546   
C334     C      0.575770000000     0.938890000000     0.711330000000     0.363097   
C335     C      0.505700000000     0.016190000000     0.793030000000     0.363033   
C336     C      0.581390000000     0.091380000000     0.731790000000     0.361256   
C337     C      0.828970000000     0.827030000000     0.660460000000     0.364507   
C338     C      0.824720000000     0.676190000000     0.652280000000     0.36351    
C339     C      0.769600000000     0.749870000000     0.741240000000     0.357088   
C340     C      0.681440000000     0.675960000000     0.673500000000     0.362735   
C341     C      0.742650000000     0.769020000000     0.596910000000     0.361782   
C342     C      0.678500000000     0.823360000000     0.685460000000     0.360993   
C343     C      0.835660000000     0.837850000000     0.902480000000     0.361685   
C344     C      0.684630000000     0.847510000000     0.926500000000     0.358234   
C345     C      0.731730000000     0.774420000000     0.840820000000     0.361467   
C346     C      0.680040000000     0.694300000000     0.925080000000     0.355762   
C347     C      0.764060000000     0.768440000000     0.486040000000     0.360745   
C348     C      0.825440000000     0.694120000000     0.898960000000     0.359339   
C349     C      0.695980000000     0.337850000000     0.518390000000     0.362929   
C350     C      0.701660000000     0.191060000000     0.518090000000     0.357967   
C351     C      0.788430000000     0.259400000000     0.957210000000     0.361767   
C352     C      0.836300000000     0.191740000000     0.554540000000     0.364207   
C353     C      0.765740000000     0.285990000000     0.598100000000     0.362481   
C354     C      0.851020000000     0.339540000000     0.529990000000     0.363503   
C355     C      0.841670000000     0.337360000000     0.801470000000     0.366947   
C356     C      0.764560000000     0.248330000000     0.847350000000     0.359835   
C357     C      0.702570000000     0.343610000000     0.768500000000     0.362982   
C358     C      0.693380000000     0.196810000000     0.765260000000     0.364676   
C359     C      0.844300000000     0.188000000000     0.780670000000     0.369527   
C360     C      0.793550000000     0.271200000000     0.707070000000     0.362997   
C361     C      0.588820000000     0.449720000000     0.497220000000     0.362556   
C362     C      0.509950000000     0.502330000000     0.910220000000     0.361283   
C363     C      0.437930000000     0.434550000000     0.491490000000     0.362358   
C364     C      0.432600000000     0.586820000000     0.963830000000     0.361367   
C365     C      0.583510000000     0.593640000000     0.973260000000     0.359748   
C366     C      0.490170000000     0.531950000000     0.550740000000     0.363232   
C367     C      0.437400000000     0.431180000000     0.744300000000     0.368427   
C368     C      0.587320000000     0.424560000000     0.728640000000     0.36546    
C369     C      0.505580000000     0.497540000000     0.655790000000     0.360057   
C370     C      0.589120000000     0.576860000000     0.720170000000     0.363265   
C371     C      0.512810000000     0.515320000000     0.799070000000     0.366609   
C372     C      0.441870000000     0.575530000000     0.710660000000     0.363691   
C373     C      0.933960000000     0.419740000000     0.596060000000     0.36114    
C374     C      0.003270000000     0.472880000000     0.678680000000     0.360345   
C375     C      0.088740000000     0.435720000000     0.589850000000     0.362277   
C376     C      0.076440000000     0.574180000000     0.619980000000     0.35537    
C377     C      0.935600000000     0.571690000000     0.622280000000     0.362221   
C378     C      0.988720000000     0.505210000000     0.536490000000     0.363883   
C379     C      0.070600000000     0.424600000000     0.847220000000     0.359049   
C380     C      0.010910000000     0.486360000000     0.934370000000     0.36913    
C381     C      0.082500000000     0.573470000000     0.869840000000     0.365935   
C382     C      0.932210000000     0.582030000000     0.872810000000     0.360517   
C383     C      0.918800000000     0.440540000000     0.856580000000     0.364151   
C384     C      0.001000000000     0.504300000000     0.787820000000     0.364408   
C385     C      0.038300000000     0.483540000000     0.720400000000    -0.0135798  
C386     C      0.965060000000     0.483650000000     0.719220000000    -0.0138736  
C387     C      0.036350000000     0.474860000000     0.750280000000    -0.0131445  
C388     C      0.964930000000     0.476900000000     0.749600000000    -0.0130147  
C389     C      0.997950000000     0.453620000000     0.977650000000    -0.0133106  
C390     C      0.031320000000     0.517590000000     0.976460000000    -0.0111827  
C391     C      0.966420000000     0.471840000000     0.495230000000    -0.0124546  
C392     C      0.998800000000     0.536130000000     0.492520000000    -0.0132865  
C393     C      0.491510000000     0.480760000000     0.838900000000    -0.0127008  
C394     C      0.520710000000     0.547810000000     0.842930000000    -0.0125204  
C395     C      0.477820000000     0.488980000000     0.867400000000    -0.0130131  
C396     C      0.537010000000     0.532060000000     0.869490000000    -0.0139637  
C397     C      0.459790000000     0.501110000000     0.589280000000    -0.013702   
C398     C      0.499040000000     0.562260000000     0.595180000000    -0.0132737  
C399     C      0.457600000000     0.503520000000     0.619780000000    -0.0130934  
C400     C      0.520360000000     0.541040000000     0.617920000000    -0.0137904  
C401     C      0.888410000000     0.376230000000     0.859820000000    -0.0126566  
C402     C      0.856630000000     0.428370000000     0.833860000000    -0.0131963  
C403     C      0.893240000000     0.352490000000     0.834140000000    -0.0136572  
C404     C      0.860970000000     0.405590000000     0.807590000000    -0.0134117  
C405     C      0.635770000000     0.367470000000     0.773010000000    -0.0139132  
C406     C      0.682010000000     0.400880000000     0.741940000000    -0.0144274  
C407     C      0.607540000000     0.363400000000     0.749710000000    -0.0115183  
C408     C      0.652300000000     0.398480000000     0.719060000000    -0.0136638  
C409     C      0.800240000000     0.228070000000     0.887230000000    -0.0130118  
C410     C      0.752780000000     0.283350000000     0.888990000000    -0.0137421  
C411     C      0.792020000000     0.219290000000     0.916630000000    -0.0122856  
C412     C      0.747630000000     0.275880000000     0.918960000000    -0.0138116  
C413     C      0.749210000000     0.259640000000     0.642530000000    -0.0134017  
C414     C      0.801040000000     0.310730000000     0.636850000000    -0.0133866  
C415     C      0.777390000000     0.243040000000     0.663040000000    -0.0139842  
C416     C      0.799370000000     0.312670000000     0.667530000000    -0.0142317  
C417     C      0.919030000000     0.356790000000     0.575380000000    -0.0130928  
C418     C      0.869420000000     0.409300000000     0.575830000000    -0.0150367  
C419     C      0.916620000000     0.355290000000     0.544720000000    -0.0108087  
C420     C      0.865710000000     0.405780000000     0.544880000000    -0.013956   
C421     C      0.655070000000     0.425560000000     0.489830000000    -0.0133183  
C422     C      0.618450000000     0.406360000000     0.531140000000    -0.01428    
C423     C      0.667590000000     0.383780000000     0.485990000000    -0.0136324  
C424     C      0.631040000000     0.364380000000     0.527450000000    -0.0130287  
C425     C      0.867530000000     0.663910000000     0.865130000000    -0.0133704  
C426     C      0.877920000000     0.651700000000     0.914550000000    -0.0138921  
C427     C      0.876900000000     0.621870000000     0.859010000000    -0.0129167  
C428     C      0.891030000000     0.610650000000     0.907900000000    -0.0137978  
C429     C      0.612710000000     0.678320000000     0.938100000000    -0.0146655  
C430     C      0.662800000000     0.626400000000     0.934940000000    -0.0133387  
C431     C      0.600340000000     0.662580000000     0.965880000000    -0.014098   
C432     C      0.650840000000     0.611340000000     0.962590000000    -0.0125044  
C433     C      0.711510000000     0.742230000000     0.799130000000    -0.0138709  
C434     C      0.748130000000     0.804160000000     0.797660000000    -0.00953093 
C435     C      0.744900000000     0.722060000000     0.784050000000    -0.0152562  
C436     C      0.781940000000     0.784030000000     0.784040000000    -0.0138017  
C437     C      0.774890000000     0.796270000000     0.557720000000    -0.0135737  
C438     C      0.714700000000     0.755610000000     0.552030000000    -0.0137961  
C439     C      0.768150000000     0.805270000000     0.528070000000    -0.013597   
C440     C      0.735590000000     0.739700000000     0.527010000000    -0.0142629  
C441     C      0.851470000000     0.610260000000     0.657040000000    -0.0134829  
C442     C      0.868350000000     0.651140000000     0.616990000000    -0.0140217  
C443     C      0.893230000000     0.596590000000     0.658340000000    -0.0135874  
C444     C      0.910310000000     0.638300000000     0.618930000000    -0.013059   
C445     C      0.614240000000     0.657970000000     0.683150000000    -0.0137366  
C446     C      0.665800000000     0.607480000000     0.681090000000    -0.0116557  
C447     C      0.604640000000     0.645400000000     0.712120000000    -0.0141164  
C448     C      0.656190000000     0.594910000000     0.709720000000    -0.0119268  
C449     C      0.611010000000     0.846150000000     0.683410000000    -0.0132617  
C450     C      0.653520000000     0.866510000000     0.721240000000    -0.0135831  
C451     C      0.596490000000     0.887450000000     0.680400000000    -0.0140998  
C452     C      0.638770000000     0.907980000000     0.719240000000    -0.0139622  
C453     C      0.599180000000     0.159080000000     0.741750000000    -0.0143876  
C454     C      0.647150000000     0.104230000000     0.746630000000    -0.0131863  
C455     C      0.624440000000     0.178410000000     0.763460000000    -0.013468   
C456     C      0.676750000000     0.136130000000     0.743320000000    -0.0135637  
C457     C      0.540300000000     0.042290000000     0.832190000000    -0.0132175  
C458     C      0.468700000000     0.039300000000     0.832100000000    -0.0129743  
C459     C      0.541270000000     0.031620000000     0.861870000000    -0.0138101  
C460     C      0.468360000000     0.028690000000     0.861840000000    -0.0141882  
C461     C      0.498900000000     0.074240000000     0.605990000000    -0.0139981  
C462     C      0.537180000000     0.013360000000     0.606700000000    -0.0112348  
C463     C      0.468930000000     0.053840000000     0.588060000000    -0.0128647  
C464     C      0.505850000000     0.991900000000     0.591260000000    -0.0136797  
C465     C      0.622750000000     0.895790000000     0.974720000000    -0.0115548  
C466     C      0.591270000000     0.897780000000     0.929260000000    -0.0115667  
C467     C      0.662220000000     0.893280000000     0.961120000000    -0.0139703  
C468     C      0.630110000000     0.890580000000     0.915550000000    -0.0139358  
C469     C      0.635530000000     0.166130000000     0.523480000000    -0.0138645  
C470     C      0.677610000000     0.142570000000     0.485550000000    -0.0149999  
C471     C      0.619740000000     0.125330000000     0.526540000000    -0.0133184  
C472     C      0.659280000000     0.102380000000     0.487830000000    -0.0133341  
C473     C      0.131320000000     0.640910000000     0.912220000000    -0.0137393  
C474     C      0.143540000000     0.655720000000     0.863080000000    -0.0135648  
C475     C      0.125460000000     0.598790000000     0.904840000000    -0.0114065  
C476     C      0.138450000000     0.612920000000     0.856290000000    -0.0120021  
C477     C      0.420030000000     0.651670000000     0.945900000000    -0.0139031  
C478     C      0.371110000000     0.598750000000     0.941230000000    -0.0128147  
C479     C      0.387340000000     0.681580000000     0.945130000000    -0.014485   
C480     C      0.338940000000     0.627520000000     0.946000000000    -0.0123378  
C481     C      0.337300000000     0.903980000000     0.950360000000    -0.0136865  
C482     C      0.391430000000     0.858810000000     0.936970000000    -0.0146124  
C483     C      0.368150000000     0.935070000000     0.947760000000    -0.0138801  
C484     C      0.413580000000     0.880320000000     0.959460000000    -0.0141468  
C485     C      0.236810000000     0.796560000000     0.800070000000    -0.0126157  
C486     C      0.299670000000     0.761700000000     0.800250000000    -0.013972   
C487     C      0.218590000000     0.765290000000     0.782320000000    -0.0138956  
C488     C      0.281870000000     0.730790000000     0.781860000000    -0.0132091  
C489     C      0.242390000000     0.795180000000     0.533230000000    -0.0137949  
C490     C      0.239070000000     0.723090000000     0.531520000000    -0.0139446  
C491     C      0.280740000000     0.792480000000     0.548230000000    -0.0130247  
C492     C      0.276980000000     0.720640000000     0.547340000000    -0.01389    
C493     C      0.115510000000     0.631390000000     0.608060000000    -0.013954   
C494     C      0.110830000000     0.608080000000     0.656310000000    -0.0141649  
C495     C      0.155980000000     0.644670000000     0.616680000000    -0.014057   
C496     C      0.124840000000     0.649240000000     0.662710000000    -0.0138086  
C497     C      0.387650000000     0.665900000000     0.707580000000    -0.0141895  
C498     C      0.358100000000     0.617280000000     0.676020000000    -0.0140143  
C499     C      0.425860000000     0.644550000000     0.706210000000    -0.0130154  
C500     C      0.396560000000     0.596040000000     0.675110000000    -0.0131129  
C501     C      0.402540000000     0.904300000000     0.672520000000    -0.0131037  
C502     C      0.390380000000     0.891820000000     0.721940000000    -0.0138841  
C503     C      0.360110000000     0.897700000000     0.666710000000    -0.0123907  
C504     C      0.348730000000     0.881650000000     0.715140000000    -0.0122249  
C505     C      0.088700000000     0.355320000000     0.846490000000    -0.0135647  
C506     C      0.114850000000     0.400800000000     0.812200000000    -0.0134406  
C507     C      0.127980000000     0.335190000000     0.848170000000    -0.0142094  
C508     C      0.154540000000     0.382590000000     0.814290000000    -0.0139806  
C509     C      0.397740000000     0.349510000000     0.780800000000    -0.0130126  
C510     C      0.346070000000     0.376810000000     0.750790000000    -0.0142498  
C511     C      0.417140000000     0.388600000000     0.781200000000    -0.0129986  
C512     C      0.368330000000     0.414930000000     0.749000000000    -0.013222   
C513     C      0.410200000000     0.154640000000     0.748190000000    -0.0146986  
C514     C      0.360700000000     0.102240000000     0.749960000000    -0.0129785  
C515     C      0.403630000000     0.162820000000     0.778360000000    -0.0141379  
C516     C      0.354180000000     0.110490000000     0.779860000000    -0.0122061  
C517     C      0.308030000000     0.233760000000     0.937190000000    -0.0136745  
C518     C      0.242930000000     0.265420000000     0.934610000000    -0.0142518  
C519     C      0.324590000000     0.264160000000     0.917850000000    -0.0134233  
C520     C      0.260770000000     0.296680000000     0.916940000000    -0.0104691  
C521     C      0.268250000000     0.285280000000     0.693000000000    -0.0133037  
C522     C      0.270270000000     0.212820000000     0.692710000000    -0.0132072  
C523     C      0.258660000000     0.285250000000     0.663190000000    -0.0138903  
C524     C      0.260380000000     0.212850000000     0.662830000000    -0.0135551  
C525     C      0.135200000000     0.358330000000     0.553730000000    -0.0137712  
C526     C      0.174550000000     0.377330000000     0.594340000000    -0.0145364  
C527     C      0.119530000000     0.399460000000     0.552580000000    -0.0132792  
C528     C      0.157840000000     0.418080000000     0.592970000000    -0.0131545  
C529     C      0.371230000000     0.416260000000     0.504060000000    -0.014435   
C530     C      0.424020000000     0.366860000000     0.503480000000    -0.0124715  
C531     C      0.360330000000     0.403690000000     0.532970000000    -0.0133374  
C532     C      0.413690000000     0.354990000000     0.532130000000    -0.0112947  
C533     C      0.416840000000     0.164620000000     0.533150000000    -0.0100024  
C534     C      0.365140000000     0.115050000000     0.529850000000    -0.0145321  
C535     C      0.420050000000     0.166100000000     0.502520000000    -0.0127353  
C536     C      0.369350000000     0.115120000000     0.498890000000    -0.0143148  
C537     C      0.909240000000     0.169120000000     0.792680000000    -0.0125469  
C538     C      0.854110000000     0.121140000000     0.796060000000    -0.0134827  
C539     C      0.933450000000     0.132990000000     0.795280000000    -0.0130283  
C540     C      0.876020000000     0.106360000000     0.821010000000    -0.0131183  
C541     C      0.871200000000     0.929200000000     0.882810000000    -0.0144408  
C542     C      0.905420000000     0.877280000000     0.857140000000    -0.0139946  
C543     C      0.866430000000     0.902110000000     0.906920000000    -0.0132897  
C544     C      0.899150000000     0.849760000000     0.880930000000    -0.0135513  
C545     C      0.107010000000     0.850260000000     0.887730000000    -0.0123041  
C546     C      0.143350000000     0.900420000000     0.913240000000    -0.0132658  
C547     C      0.110410000000     0.874110000000     0.861890000000    -0.0137867  
C548     C      0.147510000000     0.924100000000     0.887380000000    -0.0137519  
C549     C      0.106080000000     0.149810000000     0.827420000000    -0.0119923  
C550     C      0.136650000000     0.133960000000     0.871330000000    -0.0127032  
C551     C      0.141860000000     0.137150000000     0.812130000000    -0.0127453  
C552     C      0.174980000000     0.126720000000     0.856810000000    -0.0123213  
C553     C      0.026230000000     0.052200000000     0.723240000000    -0.0137944  
C554     C      0.981610000000     0.995550000000     0.722030000000    -0.0102136  
C555     C      0.055480000000     0.027120000000     0.738490000000    -0.0126922  
C556     C      0.011090000000     0.970560000000     0.736870000000    -0.0146537  
C557     C      0.965660000000     0.004030000000     0.965500000000    -0.0133114  
C558     C      0.036730000000     0.992700000000     0.964720000000    -0.0127731  
C559     C      0.968220000000     0.013480000000     0.495640000000    -0.0143508  
C560     C      0.040470000000     0.006950000000     0.493340000000    -0.0134007  
C561     C      0.913520000000     0.151690000000     0.595070000000    -0.0134963  
C562     C      0.893460000000     0.105530000000     0.558460000000    -0.0140622  
C563     C      0.872990000000     0.169090000000     0.594420000000    -0.0134445  
C564     C      0.853190000000     0.122670000000     0.558550000000    -0.0128003  
C565     C      0.921310000000     0.873640000000     0.642340000000    -0.0128538  
C566     C      0.865310000000     0.914270000000     0.625670000000    -0.013555   
C567     C      0.892080000000     0.841200000000     0.641740000000    -0.0134707  
C568     C      0.843880000000     0.895180000000     0.649470000000    -0.0141392  
C569     C      0.096670000000     0.868860000000     0.640530000000    -0.0131052  
C570     C      0.145150000000     0.899040000000     0.609730000000    -0.0129781  
C571     C      0.127230000000     0.863860000000     0.662360000000    -0.0136041  
C572     C      0.175710000000     0.894450000000     0.631670000000    -0.0142217  
C573     C      0.107310000000     0.150690000000     0.588220000000    -0.0146059  
C574     C      0.156030000000     0.097290000000     0.586150000000    -0.0137018  
C575     C      0.124680000000     0.168400000000     0.562290000000    -0.0138843  
C576     C      0.172990000000     0.114870000000     0.560550000000    -0.0126496  
H1       H      0.958300000000     0.514510000000     0.215430000000     0.0468625  
H2       H      0.044760000000     0.514700000000     0.217750000000     0.0484371  
H3       H      0.062680000000     0.486690000000     0.259880000000     0.0490143  
H4       H      0.941370000000     0.466420000000     0.210180000000     0.0485463  
H5       H      0.939260000000     0.491390000000     0.258280000000     0.0480843  
H6       H      0.961840000000     0.445460000000     0.253350000000     0.0434266  
H7       H      0.062800000000     0.467060000000     0.211760000000     0.0481315  
H8       H      0.036830000000     0.443060000000     0.253050000000     0.0426824  
H9       H      0.053620000000     0.507450000000     0.490840000000     0.0438525  
H10      H      0.019900000000     0.440530000000     0.491080000000     0.0467961  
H11      H      0.954380000000     0.449840000000     0.009120000000     0.0461823  
H12      H      0.045080000000     0.539410000000     0.463220000000     0.0478122  
H13      H      0.010240000000     0.560820000000     0.004290000000     0.0489239  
H14      H      0.976800000000     0.547190000000     0.978250000000     0.0490709  
H15      H      0.985250000000     0.430520000000     0.464960000000     0.047471   
H16      H      0.942720000000     0.481250000000     0.981740000000     0.0433122  
H17      H      0.543020000000     0.565180000000     0.332440000000     0.043746   
H18      H      0.513900000000     0.457900000000     0.339510000000     0.0510225  
H19      H      0.467740000000     0.461690000000     0.376790000000     0.0455935  
H20      H      0.495920000000     0.566990000000     0.347340000000     0.0462162  
H21      H      0.563760000000     0.515610000000     0.365290000000     0.0491141  
H22      H      0.544940000000     0.556680000000     0.382710000000     0.0453523  
H23      H      0.467050000000     0.469380000000     0.326850000000     0.0434761  
H24      H      0.453100000000     0.509260000000     0.366750000000     0.0476077  
H25      H      0.519560000000     0.581230000000     0.084280000000     0.0466674  
H26      H      0.473860000000     0.473310000000     0.084010000000     0.0551784  
H27      H      0.445380000000     0.476050000000     0.127510000000     0.0492305  
H28      H      0.476250000000     0.580670000000     0.104130000000     0.042686   
H29      H      0.546320000000     0.526730000000     0.109560000000     0.0504727  
H30      H      0.530500000000     0.562570000000     0.132900000000     0.0454038  
H31      H      0.430300000000     0.500190000000     0.080690000000     0.0403154  
H32      H      0.437620000000     0.527110000000     0.125570000000     0.0426993  
H33      H      0.828430000000     0.420800000000     0.342980000000     0.0433222  
H34      H      0.860550000000     0.368250000000     0.369270000000     0.0443824  
H35      H      0.891910000000     0.321380000000     0.339290000000     0.049893   
H36      H      0.856250000000     0.459740000000     0.329420000000     0.0496485  
H37      H      0.836070000000     0.411960000000     0.294320000000     0.0480615  
H38      H      0.887550000000     0.415410000000     0.297250000000     0.0472493  
H39      H      0.911760000000     0.369150000000     0.374250000000     0.0492906  
H40      H      0.922450000000     0.358190000000     0.325980000000     0.0469856  
H41      H      0.678670000000     0.429350000000     0.251920000000     0.0448056  
H42      H      0.628900000000     0.394430000000     0.284090000000     0.0488794  
H43      H      0.577650000000     0.361970000000     0.257540000000     0.0490191  
H44      H      0.711370000000     0.399800000000     0.233210000000     0.0494426  
H45      H      0.655410000000     0.423970000000     0.205700000000     0.0481538  
H46      H      0.658390000000     0.372160000000     0.207040000000     0.0450549  
H47      H      0.631890000000     0.342930000000     0.287090000000     0.0499886  
H48      H      0.613560000000     0.335680000000     0.239310000000     0.044257   
H49      H      0.773020000000     0.307900000000     0.386470000000     0.0449406  
H50      H      0.827030000000     0.245460000000     0.385950000000     0.0482364  
H51      H      0.818200000000     0.206430000000     0.425840000000     0.0471118  
H52      H      0.724680000000     0.292490000000     0.380450000000     0.0485402  
H53      H      0.742600000000     0.303970000000     0.429120000000     0.0491661  
H54      H      0.721140000000     0.258390000000     0.421710000000     0.0438316  
H55      H      0.805460000000     0.200320000000     0.376620000000     0.0467896  
H56      H      0.768410000000     0.197760000000     0.417820000000     0.0460562  
H57      H      0.829020000000     0.297820000000     0.130830000000     0.0484544  
H58      H      0.736430000000     0.235560000000     0.130800000000     0.0482319  
H59      H      0.801360000000     0.228600000000     0.152220000000     0.0463798  
H60      H      0.800340000000     0.340470000000     0.128500000000     0.0443304  
H61      H      0.826420000000     0.325620000000     0.175300000000     0.046514   
H62      H      0.775470000000     0.332170000000     0.173500000000     0.0490242  
H63      H      0.725510000000     0.274580000000     0.153300000000     0.0469475  
H64      H      0.762200000000     0.220710000000     0.175030000000     0.0495959  
H65      H      0.846910000000     0.390910000000     0.085170000000     0.0472131  
H66      H      0.898660000000     0.335200000000     0.083740000000     0.0501295  
H67      H      0.924260000000     0.325980000000     0.037430000000     0.0472977  
H68      H      0.863950000000     0.439630000000     0.081880000000     0.0489856  
H69      H      0.835700000000     0.412430000000     0.038780000000     0.0482074  
H70      H      0.885060000000     0.427460000000     0.035500000000     0.0441883  
H71      H      0.948380000000     0.348500000000     0.082030000000     0.0496746  
H72      H      0.937940000000     0.375930000000     0.036330000000     0.045705   
H73      H      0.639010000000     0.420550000000     0.045100000000     0.045648   
H74      H      0.677840000000     0.440810000000     0.001360000000     0.0455928  
H75      H      0.696300000000     0.383540000000     0.976210000000     0.0496166  
H76      H      0.589720000000     0.406650000000     0.040880000000     0.0510135  
H77      H      0.634220000000     0.350790000000     0.047580000000     0.0484329  
H78      H      0.608060000000     0.348760000000     0.016380000000     0.0459978  
H79      H      0.652700000000     0.439610000000     0.969820000000     0.0490903  
H80      H      0.647120000000     0.369830000000     0.971850000000     0.044684   
H81      H      0.903960000000     0.669970000000     0.416880000000     0.0449811  
H82      H      0.894020000000     0.681400000000     0.362380000000     0.0466735  
H83      H      0.889550000000     0.620040000000     0.338510000000     0.0475092  
H84      H      0.862850000000     0.651500000000     0.434260000000     0.0487938  
H85      H      0.914100000000     0.602200000000     0.422200000000     0.0487213  
H86      H      0.866360000000     0.590940000000     0.411490000000     0.0441071  
H87      H      0.845880000000     0.673930000000     0.350240000000     0.0481184  
H88      H      0.849780000000     0.604930000000     0.359220000000     0.0462359  
H89      H      0.646720000000     0.609790000000     0.419480000000     0.0463511  
H90      H      0.593700000000     0.665400000000     0.422560000000     0.0449938  
H91      H      0.569020000000     0.667530000000     0.468630000000     0.0469828  
H92      H      0.693900000000     0.620710000000     0.431740000000     0.0488982  
H93      H      0.656160000000     0.579790000000     0.463700000000     0.0480398  
H94      H      0.669470000000     0.625370000000     0.477890000000     0.0454356  
H95      H      0.608460000000     0.710060000000     0.437780000000     0.0475914  
H96      H      0.615960000000     0.679020000000     0.981650000000     0.0444097  
H97      H      0.729140000000     0.816230000000     0.281770000000     0.0453688  
H98      H      0.690030000000     0.751940000000     0.284020000000     0.0447293  
H99      H      0.732930000000     0.699030000000     0.270980000000     0.0482351  
H100     H      0.758750000000     0.828520000000     0.310190000000     0.044149   
H101     H      0.797920000000     0.804960000000     0.271350000000     0.0493795  
H102     H      0.801980000000     0.773720000000     0.299910000000     0.0522744  
H103     H      0.697390000000     0.721340000000     0.312930000000     0.0446038  
H104     H      0.763820000000     0.708210000000     0.299250000000     0.04623    
H105     H      0.699780000000     0.731610000000     0.062560000000     0.0462691  
H106     H      0.801470000000     0.778640000000     0.059610000000     0.0516862  
H107     H      0.794540000000     0.818780000000     0.019650000000     0.0472646  
H108     H      0.692560000000     0.776690000000     0.045470000000     0.0450109  
H109     H      0.755550000000     0.716380000000     0.033300000000     0.0485616  
H110     H      0.714030000000     0.726620000000     0.013240000000     0.0458858  
H111     H      0.779990000000     0.823600000000     0.068860000000     0.0433076  
H112     H      0.744390000000     0.826520000000     0.026210000000     0.0460438  
H113     H      0.853480000000     0.632220000000     0.102240000000     0.0456698  
H114     H      0.834640000000     0.588680000000     0.145440000000     0.0455165  
H115     H      0.893790000000     0.566650000000     0.166240000000     0.0491976  
H116     H      0.867770000000     0.680950000000     0.108850000000     0.0505521  
H117     H      0.923040000000     0.638010000000     0.098430000000     0.0481285  
H118     H      0.926310000000     0.659650000000     0.131280000000     0.0457414  
H119     H      0.839530000000     0.611250000000     0.177760000000     0.0485616  
H120     H      0.908630000000     0.614990000000     0.173150000000     0.0442201  
H121     H      0.649080000000     0.589110000000     0.167000000000     0.0473409  
H122     H      0.595020000000     0.642130000000     0.169120000000     0.0449155  
H123     H      0.573510000000     0.650170000000     0.215940000000     0.0473096  
H124     H      0.696850000000     0.602600000000     0.176970000000     0.0467754  
H125     H      0.662190000000     0.563650000000     0.212190000000     0.0469227  
H126     H      0.675370000000     0.610870000000     0.223710000000     0.04735    
H127     H      0.608610000000     0.689360000000     0.180950000000     0.0464629  
H128     H      0.621310000000     0.663760000000     0.226250000000     0.045021   
H129     H      0.635980000000     0.851210000000     0.236590000000     0.0430503  
H130     H      0.591060000000     0.830320000000     0.196940000000     0.043901   
H131     H      0.565990000000     0.886130000000     0.173810000000     0.0497203  
H132     H      0.683610000000     0.867110000000     0.228690000000     0.0487881  
H133     H      0.637290000000     0.920410000000     0.239820000000     0.0483825  
H134     H      0.659980000000     0.925170000000     0.207600000000     0.0463842  
H135     H      0.610320000000     0.831920000000     0.163390000000     0.0486804  
H136     H      0.613120000000     0.901680000000     0.164090000000     0.0463588  
H137     H      0.646550000000     0.094730000000     0.267990000000     0.0480989  
H138     H      0.568380000000     0.163080000000     0.247050000000     0.045714   
H139     H      0.616700000000     0.166530000000     0.283490000000     0.0462009  
H140     H      0.656020000000     0.079070000000     0.234220000000     0.0463912  
H141     H      0.705140000000     0.125180000000     0.250260000000     0.047582   
H142     H      0.679560000000     0.143460000000     0.221640000000     0.0487975  
H143     H      0.604110000000     0.173680000000     0.222160000000     0.0471911  
H144     H      0.618440000000     0.209880000000     0.263880000000     0.0443366  
H145     H      0.465270000000     0.071060000000     0.330300000000     0.0431534  
H146     H      0.541020000000     0.074240000000     0.330470000000     0.043741   
H147     H      0.565310000000     0.047740000000     0.371420000000     0.0493472  
H148     H      0.443330000000     0.025670000000     0.322390000000     0.0487079  
H149     H      0.443150000000     0.042900000000     0.371380000000     0.0487502  
H150     H      0.464120000000     0.997030000000     0.363630000000     0.0474876  
H151     H      0.566790000000     0.030900000000     0.322550000000     0.0491945  
H152     H      0.547980000000     0.000390000000     0.363620000000     0.0471328  
H153     H      0.557900000000     0.025510000000     0.091920000000     0.0441587  
H154     H      0.519780000000     0.089280000000     0.092710000000     0.04658    
H155     H      0.456050000000     0.074920000000     0.073840000000     0.0461881  
H156     H      0.553400000000     0.992930000000     0.119660000000     0.0487199  
H157     H      0.519010000000     0.967970000000     0.079610000000     0.0492936  
H158     H      0.485130000000     0.979420000000     0.105890000000     0.0507683  
H159     H      0.484370000000     0.096040000000     0.118830000000     0.0474171  
H160     H      0.445410000000     0.043450000000     0.101340000000     0.0436071  
H161     H      0.576570000000     0.869510000000     0.431410000000     0.0436059  
H162     H      0.612470000000     0.866110000000     0.979090000000     0.0455696  
H163     H      0.682020000000     0.877160000000     0.474620000000     0.0471272  
H164     H      0.572960000000     0.916090000000     0.416090000000     0.0444714  
H165     H      0.625900000000     0.871520000000     0.397830000000     0.0477166  
H166     H      0.640900000000     0.918670000000     0.407920000000     0.0458397  
H167     H      0.625330000000     0.911860000000     0.994000000000     0.042618   
H168     H      0.673730000000     0.922940000000     0.458570000000     0.047754   
H169     H      0.662930000000     0.158310000000     0.969020000000     0.0451152  
H170     H      0.615440000000     0.183000000000     0.010690000000     0.0473011  
H171     H      0.590290000000     0.127110000000     0.035090000000     0.0492801  
H172     H      0.708150000000     0.138950000000     0.979500000000     0.0493399  
H173     H      0.657880000000     0.089120000000     0.467500000000     0.0480672  
H174     H      0.678290000000     0.084130000000     0.500500000000     0.0435769  
H175     H      0.636430000000     0.179880000000     0.043660000000     0.0486182  
H176     H      0.637940000000     0.109780000000     0.041380000000     0.0436744  
H177     H      0.115850000000     0.670780000000     0.359340000000     0.0469062  
H178     H      0.102630000000     0.654910000000     0.413390000000     0.0470961  
H179     H      0.104600000000     0.585470000000     0.419010000000     0.0466736  
H180     H      0.165420000000     0.668100000000     0.349240000000     0.0474125  
H181     H      0.126290000000     0.610060000000     0.335690000000     0.0452826  
H182     H      0.167100000000     0.598760000000     0.356740000000     0.0452943  
H183     H      0.144510000000     0.642610000000     0.432550000000     0.0487649  
H184     H      0.153380000000     0.583670000000     0.407510000000     0.043656   
H185     H      0.375340000000     0.595120000000     0.419200000000     0.0475666  
H186     H      0.432920000000     0.650070000000     0.425470000000     0.0427407  
H187     H      0.396490000000     0.706260000000     0.432390000000     0.047987   
H188     H      0.362190000000     0.570490000000     0.449760000000     0.0478617  
H189     H      0.312530000000     0.616910000000     0.435750000000     0.0462072  
H190     H      0.332950000000     0.629240000000     0.467940000000     0.0477242  
H191     H      0.442990000000     0.662150000000     0.459640000000     0.0476234  
H192     H      0.383480000000     0.693070000000     0.965830000000     0.0432283  
H193     H      0.396440000000     0.827300000000     0.439040000000     0.0452336  
H194     H      0.331270000000     0.898730000000     0.972010000000     0.0476182  
H195     H      0.358160000000     0.961500000000     0.458330000000     0.0460388  
H196     H      0.403080000000     0.867710000000     0.417110000000     0.0472906  
H197     H      0.404590000000     0.868690000000     0.479300000000     0.0463025  
H198     H      0.444910000000     0.874800000000     0.457230000000     0.0447504  
H199     H      0.310280000000     0.914630000000     0.440970000000     0.0459771  
H200     H      0.371850000000     0.942590000000     0.426170000000     0.0493416  
H201     H      0.313890000000     0.783650000000     0.287360000000     0.046926   
H202     H      0.248270000000     0.819420000000     0.286600000000     0.0438478  
H203     H      0.195980000000     0.778450000000     0.269480000000     0.0481743  
H204     H      0.321840000000     0.748240000000     0.313310000000     0.0480323  
H205     H      0.304560000000     0.718340000000     0.268750000000     0.0486905  
H206     H      0.271140000000     0.707100000000     0.294910000000     0.0441135  
H207     H      0.214310000000     0.810100000000     0.312800000000     0.0487581  
H208     H      0.204860000000     0.743500000000     0.295600000000     0.0481144  
H209     H      0.214980000000     0.721740000000     0.046180000000     0.0444575  
H210     H      0.218930000000     0.797000000000     0.048370000000     0.046289   
H211     H      0.284500000000     0.818310000000     0.061160000000     0.0496593  
H212     H      0.236590000000     0.697670000000     0.018070000000     0.0493915  
H213     H      0.277030000000     0.694080000000     0.059800000000     0.0491706  
H214     H      0.300950000000     0.718380000000     0.032640000000     0.0452898  
H215     H      0.241800000000     0.822080000000     0.021140000000     0.0498032  
H216     H      0.304270000000     0.792590000000     0.033090000000     0.0451281  
H217     H      0.086080000000     0.600920000000     0.169570000000     0.044316   
H218     H      0.096180000000     0.656830000000     0.106920000000     0.0466395  
H219     H      0.166610000000     0.666640000000     0.102180000000     0.0436607  
H220     H      0.134150000000     0.587250000000     0.161020000000     0.0497614  
H221     H      0.100540000000     0.669720000000     0.160270000000     0.0468152  
H222     H      0.134470000000     0.650690000000     0.184020000000     0.0450035  
H223     H      0.116980000000     0.618330000000     0.087660000000     0.0444645  
H224     H      0.176030000000     0.619760000000     0.115690000000     0.0494124  
H225     H      0.339290000000     0.602850000000     0.191040000000     0.0463611  
H226     H      0.372170000000     0.656410000000     0.225990000000     0.0459637  
H227     H      0.441020000000     0.648200000000     0.225720000000     0.0486832  
H228     H      0.344030000000     0.614690000000     0.156030000000     0.0478769  
H229     H      0.390670000000     0.564840000000     0.172240000000     0.047831   
H230     H      0.412740000000     0.606190000000     0.157170000000     0.0420297  
H231     H      0.393980000000     0.697110000000     0.209930000000     0.0503538  
H232     H      0.443830000000     0.658100000000     0.190310000000     0.0437381  
H233     H      0.406990000000     0.864540000000     0.223400000000     0.0458481  
H234     H      0.418400000000     0.876980000000     0.168870000000     0.0471591  
H235     H      0.356950000000     0.887050000000     0.145740000000     0.0483049  
H236     H      0.391300000000     0.905840000000     0.242020000000     0.0489525  
H237     H      0.338420000000     0.858860000000     0.229100000000     0.0477519  
H238     H      0.330860000000     0.907700000000     0.218750000000     0.0432937  
H239     H      0.413420000000     0.926240000000     0.158110000000     0.0485926  
H240     H      0.344690000000     0.925650000000     0.168500000000     0.0450586  
H241     H      0.099150000000     0.386550000000     0.295450000000     0.0426005  
H242     H      0.070490000000     0.339380000000     0.331870000000     0.0438213  
H243     H      0.122990000000     0.303810000000     0.351040000000     0.0478265  
H244     H      0.118390000000     0.431610000000     0.306640000000     0.0493792  
H245     H      0.168430000000     0.384170000000     0.294180000000     0.0491804  
H246     H      0.172170000000     0.400010000000     0.328430000000     0.0472449  
H247     H      0.074490000000     0.353740000000     0.366480000000     0.0476681  
H248     H      0.143160000000     0.345920000000     0.366360000000     0.0458065  
H249     H      0.352720000000     0.359560000000     0.232530000000     0.0436761  
H250     H      0.411400000000     0.331460000000     0.264990000000     0.046295   
H251     H      0.448330000000     0.383930000000     0.284780000000     0.0496616  
H252     H      0.314820000000     0.383410000000     0.250230000000     0.0490481  
H253     H      0.364890000000     0.427030000000     0.228430000000     0.0480984  
H254     H      0.355240000000     0.435670000000     0.263360000000     0.0442626  
H255     H      0.402730000000     0.335390000000     0.300580000000     0.0485853  
H256     H      0.405710000000     0.405340000000     0.298510000000     0.0437491  
H257     H      0.339390000000     0.119320000000     0.238300000000     0.0468136  
H258     H      0.391420000000     0.174280000000     0.236390000000     0.0453328  
H259     H      0.408860000000     0.193890000000     0.282370000000     0.0477641  
H260     H      0.355160000000     0.071290000000     0.245750000000     0.04852    
H261     H      0.323990000000     0.103580000000     0.285370000000     0.0481241  
H262     H      0.373200000000     0.090990000000     0.291600000000     0.0452379  
H263     H      0.440580000000     0.161230000000     0.243050000000     0.0484758  
H264     H      0.424870000000     0.145780000000     0.290100000000     0.0442675  
H265     H      0.230630000000     0.242660000000     0.421450000000     0.0515485  
H266     H      0.299350000000     0.208370000000     0.424990000000     0.0446518  
H267     H      0.347400000000     0.250910000000     0.405220000000     0.0477251  
H268     H      0.219260000000     0.278190000000     0.446690000000     0.048798   
H269     H      0.238440000000     0.309640000000     0.403730000000     0.0476294  
H270     H      0.271820000000     0.319950000000     0.430240000000     0.0432879  
H271     H      0.330940000000     0.223930000000     0.451170000000     0.0483105  
H272     H      0.337630000000     0.287650000000     0.430000000000     0.0461499  
H273     H      0.301960000000     0.210030000000     0.194890000000     0.0454712  
H274     H      0.299730000000     0.289810000000     0.195320000000     0.0443994  
H275     H      0.271880000000     0.311300000000     0.154040000000     0.0496046  
H276     H      0.256890000000     0.186990000000     0.202070000000     0.048285   
H277     H      0.274970000000     0.187850000000     0.153250000000     0.0488231  
H278     H      0.228850000000     0.208610000000     0.160620000000     0.046212   
H279     H      0.253540000000     0.310350000000     0.202390000000     0.0489145  
H280     H      0.226970000000     0.287990000000     0.160930000000     0.0451181  
H281     H      0.157840000000     0.360670000000     0.109440000000     0.0454072  
H282     H      0.114110000000     0.339960000000     0.064580000000     0.0467504  
H283     H      0.090330000000     0.398760000000     0.043550000000     0.0488635  
H284     H      0.204510000000     0.379480000000     0.101930000000     0.0497883  
H285     H      0.156140000000     0.430130000000     0.113640000000     0.0482819  
H286     H      0.177860000000     0.436390000000     0.081120000000     0.0438521  
H287     H      0.137840000000     0.347120000000     0.032870000000     0.0480798  
H288     H      0.138220000000     0.416460000000     0.038850000000     0.0430662  
H289     H      0.408350000000     0.347520000000     0.989430000000     0.0474806  
H290     H      0.352680000000     0.400220000000     0.489710000000     0.0454088  
H291     H      0.328790000000     0.406840000000     0.035860000000     0.0440695  
H292     H      0.455310000000     0.362560000000     0.000040000000     0.0475638  
H293     H      0.420420000000     0.323950000000     0.035170000000     0.0462578  
H294     H      0.432030000000     0.371860000000     0.046150000000     0.0467194  
H295     H      0.365320000000     0.447560000000     0.001670000000     0.0465271  
H296     H      0.375230000000     0.423110000000     0.047380000000     0.0443856  
H297     H      0.384030000000     0.092140000000     0.038200000000     0.0452783  
H298     H      0.437670000000     0.142960000000     0.040870000000     0.0468965  
H299     H      0.449720000000     0.174400000000     0.996560000000     0.0491066  
H300     H      0.334910000000     0.108260000000     0.035350000000     0.0469808  
H301     H      0.362860000000     0.085880000000     0.491000000000     0.0485361  
H302     H      0.347820000000     0.135470000000     0.490440000000     0.0453583  
H303     H      0.424530000000     0.193080000000     0.041930000000     0.0462541  
H304     H      0.400260000000     0.188720000000     0.994840000000     0.0513679  
H305     H      0.822820000000     0.122050000000     0.300640000000     0.0466017  
H306     H      0.911680000000     0.186290000000     0.311500000000     0.0508942  
H307     H      0.963530000000     0.141750000000     0.299840000000     0.0473744  
H308     H      0.858410000000     0.100540000000     0.279210000000     0.0458916  
H309     H      0.869070000000     0.124960000000     0.338540000000     0.0479524  
H310     H      0.866430000000     0.076610000000     0.325920000000     0.0439738  
H311     H      0.920490000000     0.187180000000     0.275950000000     0.0443086  
H312     H      0.933720000000     0.117400000000     0.275730000000     0.0473264  
H313     H      0.881560000000     0.872910000000     0.342580000000     0.0457039  
H314     H      0.844870000000     0.927070000000     0.370220000000     0.045067   
H315     H      0.839840000000     0.909980000000     0.418020000000     0.0483266  
H316     H      0.932740000000     0.869700000000     0.346840000000     0.0485545  
H317     H      0.896260000000     0.819830000000     0.373270000000     0.0491018  
H318     H      0.925390000000     0.850670000000     0.393670000000     0.043928   
H319     H      0.873060000000     0.959290000000     0.390290000000     0.0502454  
H320     H      0.891350000000     0.906230000000     0.420620000000     0.0450055  
H321     H      0.116940000000     0.910050000000     0.423900000000     0.0451778  
H322     H      0.079600000000     0.858230000000     0.397810000000     0.0443491  
H323     H      0.084880000000     0.868830000000     0.348980000000     0.0493831  
H324     H      0.168400000000     0.905920000000     0.426560000000     0.048637   
H325     H      0.149520000000     0.955160000000     0.392560000000     0.0497526  
H326     H      0.174980000000     0.915790000000     0.377530000000     0.0454046  
H327     H      0.105410000000     0.819110000000     0.382680000000     0.0490158  
H328     H      0.136270000000     0.864160000000     0.350740000000     0.0473543  
H329     H      0.136100000000     0.164560000000     0.377930000000     0.0462752  
H330     H      0.108650000000     0.181030000000     0.332210000000     0.045279   
H331     H      0.143510000000     0.153160000000     0.292780000000     0.0476232  
H332     H      0.134700000000     0.115480000000     0.389530000000     0.0483035  
H333     H      0.199230000000     0.137210000000     0.369410000000     0.046272   
H334     H      0.178410000000     0.095050000000     0.354500000000     0.0454206  
H335     H      0.080260000000     0.146160000000     0.314510000000     0.0496259  
H336     H      0.139790000000     0.105820000000     0.307660000000     0.0493181  
H337     H      0.962160000000     0.008630000000     0.237250000000     0.0441849  
H338     H      0.008410000000     0.067990000000     0.238170000000     0.0484185  
H339     H      0.073400000000     0.045540000000     0.251790000000     0.0488131  
H340     H      0.963640000000     0.977250000000     0.208640000000     0.0474203  
H341     H      0.995920000000     0.948430000000     0.249050000000     0.049177   
H342     H      0.029260000000     0.955580000000     0.221740000000     0.0503181  
H343     H      0.041710000000     0.073530000000     0.210530000000     0.0465211  
H344     H      0.075050000000     0.013830000000     0.223430000000     0.0439319  
H345     H      0.033640000000     0.960810000000     0.465050000000     0.0446757  
H346     H      0.957130000000     0.973310000000     0.463340000000     0.0435499  
H347     H      0.942790000000     0.000710000000     0.005830000000     0.049222   
H348     H      0.064010000000     0.999600000000     0.454140000000     0.0497034  
H349     H      0.065180000000     0.991810000000     0.002830000000     0.0487253  
H350     H      0.047030000000     0.038320000000     0.993040000000     0.0476552  
H351     H      0.942510000000     0.021790000000     0.456330000000     0.0478416  
H352     H      0.966000000000     0.045260000000     0.998030000000     0.0447167  
H353     H      0.910250000000     0.119700000000     0.042200000000     0.0454567  
H354     H      0.932710000000     0.169740000000     0.082390000000     0.0463872  
H355     H      0.875000000000     0.200090000000     0.099810000000     0.04833    
H356     H      0.891080000000     0.074530000000     0.053150000000     0.0501239  
H357     H      0.840610000000     0.119950000000     0.038100000000     0.0487039  
H358     H      0.835090000000     0.105550000000     0.072590000000     0.0445237  
H359     H      0.924550000000     0.152630000000     0.116050000000     0.0478613  
H360     H      0.855470000000     0.154630000000     0.110160000000     0.0435933  
H361     H      0.858520000000     0.945570000000     0.125160000000     0.0454162  
H362     H      0.927380000000     0.881580000000     0.163600000000     0.0491232  
H363     H      0.903340000000     0.816630000000     0.153770000000     0.0466514  
H364     H      0.854900000000     0.901430000000     0.106540000000     0.0459701  
H365     H      0.851530000000     0.910500000000     0.168350000000     0.0466945  
H366     H      0.812360000000     0.898390000000     0.146490000000     0.0458141  
H367     H      0.948660000000     0.863100000000     0.133360000000     0.0458447  
H368     H      0.888450000000     0.831000000000     0.120690000000     0.0488617  
H369     H      0.146450000000     0.873460000000     0.096290000000     0.0453368  
H370     H      0.095500000000     0.841760000000     0.128640000000     0.0442209  
H371     H      0.120560000000     0.837690000000     0.174360000000     0.0488795  
H372     H      0.151710000000     0.925110000000     0.097590000000     0.0474524  
H373     H      0.204220000000     0.890870000000     0.121940000000     0.0501376  
H374     H      0.176670000000     0.921620000000     0.143510000000     0.044491   
H375     H      0.068100000000     0.872640000000     0.150160000000     0.0493024  
H376     H      0.125840000000     0.889190000000     0.176020000000     0.0459086  
H377     H      0.173070000000     0.108040000000     0.103500000000     0.0461758  
H378     H      0.120470000000     0.165330000000     0.105830000000     0.0460505  
H379     H      0.121830000000     0.200300000000     0.063100000000     0.0460057  
H380     H      0.159520000000     0.065460000000     0.085530000000     0.0478012  
H381     H      0.204240000000     0.108320000000     0.059510000000     0.0474156  
H382     H      0.159090000000     0.100580000000     0.043060000000     0.0450816  
H383     H      0.075870000000     0.156420000000     0.088600000000     0.0471408  
H384     H      0.107880000000     0.157720000000     0.044800000000     0.0456738  
H385     H      0.958300000000     0.514510000000     0.715430000000     0.0468696  
H386     H      0.044760000000     0.514700000000     0.717750000000     0.0484429  
H387     H      0.062680000000     0.486690000000     0.759880000000     0.0490159  
H388     H      0.941370000000     0.466430000000     0.710190000000     0.0485455  
H389     H      0.939260000000     0.491380000000     0.758270000000     0.0480844  
H390     H      0.961840000000     0.445460000000     0.753340000000     0.0434316  
H391     H      0.062800000000     0.467060000000     0.711760000000     0.0481303  
H392     H      0.036830000000     0.443060000000     0.753050000000     0.0426837  
H393     H      0.053620000000     0.507450000000     0.990840000000     0.0437929  
H394     H      0.019900000000     0.440530000000     0.991080000000     0.0467231  
H395     H      0.954380000000     0.449850000000     0.509120000000     0.0460385  
H396     H      0.045080000000     0.539410000000     0.963220000000     0.0477784  
H397     H      0.010240000000     0.560810000000     0.504290000000     0.0487519  
H398     H      0.976800000000     0.547190000000     0.478260000000     0.0490517  
H399     H      0.985250000000     0.430520000000     0.964960000000     0.0474253  
H400     H      0.942720000000     0.481250000000     0.481740000000     0.0433044  
H401     H      0.543020000000     0.565180000000     0.832440000000     0.0437487  
H402     H      0.513900000000     0.457900000000     0.839510000000     0.0510212  
H403     H      0.467740000000     0.461690000000     0.876790000000     0.0455893  
H404     H      0.495920000000     0.566990000000     0.847340000000     0.0462186  
H405     H      0.563760000000     0.515610000000     0.865290000000     0.0491137  
H406     H      0.544940000000     0.556680000000     0.882710000000     0.0453562  
H407     H      0.467050000000     0.469380000000     0.826850000000     0.043475   
H408     H      0.453100000000     0.509260000000     0.866750000000     0.0476075  
H409     H      0.519560000000     0.581230000000     0.584280000000     0.0466403  
H410     H      0.473860000000     0.473310000000     0.584010000000     0.055165   
H411     H      0.445380000000     0.476050000000     0.627510000000     0.0492317  
H412     H      0.476250000000     0.580670000000     0.604140000000     0.0426666  
H413     H      0.546320000000     0.526730000000     0.609560000000     0.0504687  
H414     H      0.530500000000     0.562570000000     0.632900000000     0.0454044  
H415     H      0.430300000000     0.500190000000     0.580690000000     0.0402994  
H416     H      0.437620000000     0.527110000000     0.625570000000     0.0426993  
H417     H      0.828430000000     0.420800000000     0.842970000000     0.0433279  
H418     H      0.860550000000     0.368250000000     0.869270000000     0.0443764  
H419     H      0.891910000000     0.321380000000     0.839290000000     0.0498863  
H420     H      0.856250000000     0.459740000000     0.829420000000     0.0496562  
H421     H      0.836060000000     0.411960000000     0.794320000000     0.0480525  
H422     H      0.887550000000     0.415410000000     0.797250000000     0.0472424  
H423     H      0.911760000000     0.369150000000     0.874250000000     0.0492815  
H424     H      0.922450000000     0.358190000000     0.825980000000     0.0469829  
H425     H      0.678670000000     0.429350000000     0.751920000000     0.0448013  
H426     H      0.628900000000     0.394440000000     0.784090000000     0.048868   
H427     H      0.577650000000     0.361970000000     0.757540000000     0.0490282  
H428     H      0.711370000000     0.399800000000     0.733210000000     0.0494385  
H429     H      0.655410000000     0.423970000000     0.705700000000     0.0481673  
H430     H      0.658390000000     0.372160000000     0.707050000000     0.0450768  
H431     H      0.631890000000     0.342930000000     0.787090000000     0.0499819  
H432     H      0.613560000000     0.335680000000     0.739310000000     0.0442611  
H433     H      0.773030000000     0.307900000000     0.886470000000     0.0449361  
H434     H      0.827030000000     0.245460000000     0.885950000000     0.0482335  
H435     H      0.818200000000     0.206430000000     0.925840000000     0.0470897  
H436     H      0.724680000000     0.292490000000     0.880450000000     0.0485375  
H437     H      0.742600000000     0.303970000000     0.929120000000     0.0491275  
H438     H      0.721140000000     0.258390000000     0.921710000000     0.0437964  
H439     H      0.805460000000     0.200320000000     0.876620000000     0.0467883  
H440     H      0.768400000000     0.197760000000     0.917820000000     0.0460296  
H441     H      0.829020000000     0.297830000000     0.630830000000     0.0484554  
H442     H      0.736430000000     0.235560000000     0.630800000000     0.0482402  
H443     H      0.801360000000     0.228600000000     0.652220000000     0.0463791  
H444     H      0.800340000000     0.340470000000     0.628500000000     0.0443295  
H445     H      0.826420000000     0.325620000000     0.675300000000     0.0465125  
H446     H      0.775470000000     0.332170000000     0.673500000000     0.0490215  
H447     H      0.725520000000     0.274580000000     0.653300000000     0.0469637  
H448     H      0.762200000000     0.220710000000     0.675030000000     0.0495937  
H449     H      0.846910000000     0.390900000000     0.585170000000     0.0472122  
H450     H      0.898660000000     0.335200000000     0.583740000000     0.050129   
H451     H      0.924260000000     0.325980000000     0.537430000000     0.0472779  
H452     H      0.863950000000     0.439630000000     0.581880000000     0.0489859  
H453     H      0.835700000000     0.412430000000     0.538780000000     0.0481584  
H454     H      0.885050000000     0.427460000000     0.535500000000     0.0441449  
H455     H      0.948380000000     0.348500000000     0.582030000000     0.0496701  
H456     H      0.937940000000     0.375930000000     0.536330000000     0.0456842  
H457     H      0.639010000000     0.420550000000     0.545100000000     0.0456369  
H458     H      0.677840000000     0.440810000000     0.501360000000     0.0453842  
H459     H      0.696300000000     0.383540000000     0.476210000000     0.0496604  
H460     H      0.589720000000     0.406650000000     0.540880000000     0.0510039  
H461     H      0.634220000000     0.350790000000     0.547580000000     0.0484247  
H462     H      0.608060000000     0.348760000000     0.516380000000     0.0459544  
H463     H      0.652700000000     0.439610000000     0.469820000000     0.0490233  
H464     H      0.647120000000     0.369830000000     0.471850000000     0.0447224  
H465     H      0.903960000000     0.669970000000     0.916880000000     0.0449588  
H466     H      0.894020000000     0.681400000000     0.862380000000     0.0466674  
H467     H      0.889550000000     0.620040000000     0.838510000000     0.0475178  
H468     H      0.862850000000     0.651500000000     0.934260000000     0.0487644  
H469     H      0.914100000000     0.602200000000     0.922190000000     0.0487469  
H470     H      0.866360000000     0.590950000000     0.911490000000     0.0441242  
H471     H      0.845880000000     0.673930000000     0.850240000000     0.0481175  
H472     H      0.849780000000     0.604930000000     0.859220000000     0.0462437  
H473     H      0.646720000000     0.609790000000     0.919480000000     0.0463584  
H474     H      0.593700000000     0.665400000000     0.922560000000     0.0450027  
H475     H      0.569020000000     0.667530000000     0.968630000000     0.0469708  
H476     H      0.693900000000     0.620710000000     0.931740000000     0.0488925  
H477     H      0.656160000000     0.579790000000     0.963700000000     0.048017   
H478     H      0.669470000000     0.625370000000     0.977890000000     0.045396   
H479     H      0.608460000000     0.710060000000     0.937780000000     0.0475806  
H480     H      0.615960000000     0.679020000000     0.481650000000     0.0444489  
H481     H      0.729140000000     0.816230000000     0.781770000000     0.0453789  
H482     H      0.690030000000     0.751940000000     0.784020000000     0.0447284  
H483     H      0.732930000000     0.699030000000     0.770980000000     0.0482426  
H484     H      0.758750000000     0.828520000000     0.810190000000     0.0441599  
H485     H      0.797920000000     0.804960000000     0.771350000000     0.0493741  
H486     H      0.801980000000     0.773720000000     0.799910000000     0.0522747  
H487     H      0.697390000000     0.721340000000     0.812930000000     0.0446079  
H488     H      0.763820000000     0.708210000000     0.799250000000     0.0462354  
H489     H      0.699770000000     0.731610000000     0.562560000000     0.0462442  
H490     H      0.801470000000     0.778640000000     0.559610000000     0.0516727  
H491     H      0.794540000000     0.818780000000     0.519650000000     0.0472061  
H492     H      0.692560000000     0.776690000000     0.545470000000     0.0449753  
H493     H      0.755550000000     0.716380000000     0.533300000000     0.0485275  
H494     H      0.714030000000     0.726620000000     0.513240000000     0.0458201  
H495     H      0.779990000000     0.823600000000     0.568860000000     0.0432974  
H496     H      0.744390000000     0.826520000000     0.526210000000     0.045996   
H497     H      0.853480000000     0.632220000000     0.602240000000     0.0456591  
H498     H      0.834640000000     0.588680000000     0.645440000000     0.0454923  
H499     H      0.893790000000     0.566650000000     0.666250000000     0.0491888  
H500     H      0.867770000000     0.680950000000     0.608850000000     0.0505398  
H501     H      0.923040000000     0.638010000000     0.598430000000     0.0481226  
H502     H      0.926310000000     0.659650000000     0.631280000000     0.0457386  
H503     H      0.839530000000     0.611250000000     0.677760000000     0.0485353  
H504     H      0.908630000000     0.614990000000     0.673150000000     0.0442193  
H505     H      0.649080000000     0.589110000000     0.667000000000     0.0473485  
H506     H      0.595020000000     0.642130000000     0.669120000000     0.0449037  
H507     H      0.573510000000     0.650170000000     0.715940000000     0.0473009  
H508     H      0.696840000000     0.602600000000     0.676980000000     0.0467936  
H509     H      0.662190000000     0.563650000000     0.712190000000     0.046924   
H510     H      0.675370000000     0.610870000000     0.723710000000     0.0473538  
H511     H      0.608610000000     0.689360000000     0.680950000000     0.0464416  
H512     H      0.621300000000     0.663760000000     0.726250000000     0.0450156  
H513     H      0.635980000000     0.851210000000     0.736590000000     0.0430375  
H514     H      0.591060000000     0.830320000000     0.696940000000     0.0438969  
H515     H      0.565990000000     0.886130000000     0.673810000000     0.0497168  
H516     H      0.683610000000     0.867120000000     0.728700000000     0.0487526  
H517     H      0.637290000000     0.920410000000     0.739820000000     0.0483853  
H518     H      0.659980000000     0.925170000000     0.707600000000     0.0463872  
H519     H      0.610320000000     0.831920000000     0.663390000000     0.0486717  
H520     H      0.613120000000     0.901680000000     0.664090000000     0.0463538  
H521     H      0.646550000000     0.094730000000     0.767990000000     0.0481257  
H522     H      0.568380000000     0.163080000000     0.747050000000     0.0457176  
H523     H      0.616700000000     0.166530000000     0.783490000000     0.0461951  
H524     H      0.656020000000     0.079070000000     0.734220000000     0.0464198  
H525     H      0.705140000000     0.125180000000     0.750260000000     0.0475493  
H526     H      0.679560000000     0.143460000000     0.721640000000     0.0487723  
H527     H      0.604110000000     0.173680000000     0.722160000000     0.0471944  
H528     H      0.618440000000     0.209880000000     0.763880000000     0.0443347  
H529     H      0.465270000000     0.071060000000     0.830300000000     0.0431534  
H530     H      0.541020000000     0.074240000000     0.830470000000     0.0437377  
H531     H      0.565300000000     0.047740000000     0.871420000000     0.0493616  
H532     H      0.443330000000     0.025670000000     0.822390000000     0.0487087  
H533     H      0.443150000000     0.042900000000     0.871380000000     0.048751   
H534     H      0.464120000000     0.997030000000     0.863630000000     0.047491   
H535     H      0.566790000000     0.030900000000     0.822550000000     0.0491923  
H536     H      0.547980000000     0.000390000000     0.863620000000     0.0471422  
H537     H      0.557900000000     0.025510000000     0.591920000000     0.0441476  
H538     H      0.519780000000     0.089280000000     0.592710000000     0.046565   
H539     H      0.456050000000     0.074920000000     0.573840000000     0.0461807  
H540     H      0.553400000000     0.992930000000     0.619660000000     0.048715   
H541     H      0.519010000000     0.967970000000     0.579600000000     0.0492793  
H542     H      0.485130000000     0.979420000000     0.605880000000     0.0507706  
H543     H      0.484370000000     0.096040000000     0.618830000000     0.0474093  
H544     H      0.445410000000     0.043450000000     0.601340000000     0.0436062  
H545     H      0.576570000000     0.869510000000     0.931410000000     0.0436039  
H546     H      0.612470000000     0.866110000000     0.479090000000     0.0455768  
H547     H      0.682020000000     0.877160000000     0.974620000000     0.0470743  
H548     H      0.572960000000     0.916090000000     0.916090000000     0.0444744  
H549     H      0.625900000000     0.871520000000     0.897830000000     0.0477172  
H550     H      0.640900000000     0.918670000000     0.907920000000     0.045836   
H551     H      0.625340000000     0.911860000000     0.494000000000     0.0426331  
H552     H      0.673730000000     0.922940000000     0.958570000000     0.0477137  
H553     H      0.662930000000     0.158310000000     0.469020000000     0.0451396  
H554     H      0.615440000000     0.183000000000     0.510690000000     0.0472744  
H555     H      0.590290000000     0.127110000000     0.535090000000     0.049258   
H556     H      0.708150000000     0.138950000000     0.479500000000     0.0493808  
H557     H      0.657880000000     0.089120000000     0.967510000000     0.0481348  
H558     H      0.678290000000     0.084130000000     0.000500000000     0.0437775  
H559     H      0.636430000000     0.179880000000     0.543660000000     0.0486292  
H560     H      0.637940000000     0.109780000000     0.541380000000     0.0436483  
H561     H      0.115850000000     0.670780000000     0.859340000000     0.0468724  
H562     H      0.102630000000     0.654910000000     0.913390000000     0.0470816  
H563     H      0.104600000000     0.585460000000     0.919010000000     0.0466717  
H564     H      0.165420000000     0.668100000000     0.849240000000     0.0473829  
H565     H      0.126290000000     0.610060000000     0.835690000000     0.0452824  
H566     H      0.167100000000     0.598760000000     0.856740000000     0.0452893  
H567     H      0.144510000000     0.642610000000     0.932550000000     0.0487479  
H568     H      0.153380000000     0.583670000000     0.907510000000     0.0436584  
H569     H      0.375340000000     0.595120000000     0.919200000000     0.0475633  
H570     H      0.432920000000     0.650070000000     0.925470000000     0.0427433  
H571     H      0.396490000000     0.706260000000     0.932390000000     0.0479825  
H572     H      0.362180000000     0.570490000000     0.949760000000     0.047832   
H573     H      0.312530000000     0.616910000000     0.935750000000     0.0461968  
H574     H      0.332950000000     0.629240000000     0.967940000000     0.0476941  
H575     H      0.442990000000     0.662150000000     0.959640000000     0.047611   
H576     H      0.383480000000     0.693070000000     0.465830000000     0.043254   
H577     H      0.396440000000     0.827300000000     0.939040000000     0.0452268  
H578     H      0.331270000000     0.898730000000     0.472010000000     0.0476528  
H579     H      0.358160000000     0.961500000000     0.958330000000     0.046042   
H580     H      0.403080000000     0.867710000000     0.917110000000     0.0472937  
H581     H      0.404590000000     0.868690000000     0.979300000000     0.0462762  
H582     H      0.444910000000     0.874800000000     0.957230000000     0.0447501  
H583     H      0.310280000000     0.914630000000     0.940970000000     0.0459606  
H584     H      0.371840000000     0.942590000000     0.926170000000     0.0493645  
H585     H      0.313890000000     0.783650000000     0.787360000000     0.0469207  
H586     H      0.248270000000     0.819420000000     0.786600000000     0.0438433  
H587     H      0.195980000000     0.778450000000     0.769480000000     0.048189   
H588     H      0.321840000000     0.748240000000     0.813310000000     0.0480248  
H589     H      0.304560000000     0.718340000000     0.768750000000     0.0487029  
H590     H      0.271140000000     0.707100000000     0.794900000000     0.0441302  
H591     H      0.214310000000     0.810100000000     0.812800000000     0.0487652  
H592     H      0.204860000000     0.743500000000     0.795600000000     0.048132   
H593     H      0.214980000000     0.721740000000     0.546180000000     0.044445   
H594     H      0.218930000000     0.797000000000     0.548370000000     0.0463037  
H595     H      0.284500000000     0.818310000000     0.561160000000     0.0496349  
H596     H      0.236590000000     0.697670000000     0.518070000000     0.0493356  
H597     H      0.277030000000     0.694080000000     0.559800000000     0.049148   
H598     H      0.300950000000     0.718380000000     0.532630000000     0.0452322  
H599     H      0.241800000000     0.822080000000     0.521140000000     0.0497781  
H600     H      0.304270000000     0.792590000000     0.533090000000     0.0450764  
H601     H      0.086080000000     0.600920000000     0.669560000000     0.0443436  
H602     H      0.096180000000     0.656830000000     0.606920000000     0.0466351  
H603     H      0.166610000000     0.666640000000     0.602180000000     0.0436487  
H604     H      0.134150000000     0.587250000000     0.661020000000     0.049774   
H605     H      0.100540000000     0.669720000000     0.660270000000     0.0468114  
H606     H      0.134470000000     0.650690000000     0.684020000000     0.0450022  
H607     H      0.116980000000     0.618330000000     0.587660000000     0.0444504  
H608     H      0.176030000000     0.619760000000     0.615680000000     0.0493942  
H609     H      0.339290000000     0.602850000000     0.691040000000     0.0463768  
H610     H      0.372170000000     0.656410000000     0.725990000000     0.0459659  
H611     H      0.441010000000     0.648200000000     0.725720000000     0.0486858  
H612     H      0.344030000000     0.614690000000     0.656030000000     0.0479009  
H613     H      0.390670000000     0.564830000000     0.672240000000     0.0478163  
H614     H      0.412740000000     0.606190000000     0.657170000000     0.0420196  
H615     H      0.393990000000     0.697110000000     0.709920000000     0.0503582  
H616     H      0.443830000000     0.658100000000     0.690310000000     0.0437376  
H617     H      0.406990000000     0.864540000000     0.723400000000     0.0458439  
H618     H      0.418400000000     0.876980000000     0.668870000000     0.0471524  
H619     H      0.356940000000     0.887050000000     0.645740000000     0.048298   
H620     H      0.391300000000     0.905850000000     0.742020000000     0.0489482  
H621     H      0.338420000000     0.858860000000     0.729100000000     0.0477609  
H622     H      0.330870000000     0.907700000000     0.718750000000     0.0433116  
H623     H      0.413420000000     0.926240000000     0.658110000000     0.0485893  
H624     H      0.344690000000     0.925650000000     0.668500000000     0.0450572  
H625     H      0.099150000000     0.386550000000     0.795450000000     0.0426026  
H626     H      0.070490000000     0.339380000000     0.831870000000     0.043842   
H627     H      0.122990000000     0.303810000000     0.851050000000     0.0477939  
H628     H      0.118390000000     0.431610000000     0.806640000000     0.0493802  
H629     H      0.168430000000     0.384170000000     0.794180000000     0.0491801  
H630     H      0.172170000000     0.400010000000     0.828430000000     0.047242   
H631     H      0.074490000000     0.353740000000     0.866490000000     0.0476698  
H632     H      0.143160000000     0.345920000000     0.866370000000     0.0457627  
H633     H      0.352720000000     0.359560000000     0.732540000000     0.0436985  
H634     H      0.411400000000     0.331460000000     0.764990000000     0.0462975  
H635     H      0.448320000000     0.383930000000     0.784780000000     0.0496619  
H636     H      0.314820000000     0.383410000000     0.750240000000     0.0490594  
H637     H      0.364890000000     0.427030000000     0.728430000000     0.0481019  
H638     H      0.355240000000     0.435670000000     0.763360000000     0.0442624  
H639     H      0.402730000000     0.335390000000     0.800580000000     0.0485721  
H640     H      0.405710000000     0.405340000000     0.798520000000     0.0437313  
H641     H      0.339390000000     0.119320000000     0.738310000000     0.0468247  
H642     H      0.391420000000     0.174280000000     0.736390000000     0.0453323  
H643     H      0.408860000000     0.193890000000     0.782370000000     0.0477563  
H644     H      0.355160000000     0.071290000000     0.745750000000     0.0485275  
H645     H      0.323990000000     0.103580000000     0.785370000000     0.0481267  
H646     H      0.373200000000     0.090990000000     0.791600000000     0.0452459  
H647     H      0.440580000000     0.161230000000     0.743040000000     0.0484808  
H648     H      0.424870000000     0.145780000000     0.790100000000     0.0442619  
H649     H      0.230630000000     0.242660000000     0.921440000000     0.0515251  
H650     H      0.299350000000     0.208370000000     0.924980000000     0.0446362  
H651     H      0.347400000000     0.250910000000     0.905220000000     0.0477205  
H652     H      0.219260000000     0.278190000000     0.946690000000     0.048761   
H653     H      0.238440000000     0.309640000000     0.903730000000     0.0476239  
H654     H      0.271820000000     0.319950000000     0.930240000000     0.0432741  
H655     H      0.330940000000     0.223930000000     0.951160000000     0.0482868  
H656     H      0.337630000000     0.287650000000     0.930000000000     0.0461381  
H657     H      0.301960000000     0.210030000000     0.694900000000     0.04548    
H658     H      0.299730000000     0.289810000000     0.695320000000     0.0444012  
H659     H      0.271880000000     0.311300000000     0.654040000000     0.0496046  
H660     H      0.256890000000     0.186990000000     0.702070000000     0.0482927  
H661     H      0.274970000000     0.187850000000     0.653250000000     0.0487927  
H662     H      0.228850000000     0.208610000000     0.660620000000     0.046183   
H663     H      0.253540000000     0.310350000000     0.702390000000     0.0489163  
H664     H      0.226970000000     0.287990000000     0.660930000000     0.0451177  
H665     H      0.157840000000     0.360670000000     0.609440000000     0.0454088  
H666     H      0.114110000000     0.339960000000     0.564580000000     0.0467429  
H667     H      0.090330000000     0.398750000000     0.543550000000     0.0488291  
H668     H      0.204510000000     0.379480000000     0.601930000000     0.0497896  
H669     H      0.156140000000     0.430130000000     0.613640000000     0.0482704  
H670     H      0.177860000000     0.436400000000     0.581120000000     0.0438277  
H671     H      0.137840000000     0.347120000000     0.532870000000     0.0480526  
H672     H      0.138220000000     0.416460000000     0.538850000000     0.0430338  
H673     H      0.408350000000     0.347520000000     0.489430000000     0.0476796  
H674     H      0.352680000000     0.400220000000     0.989710000000     0.0452435  
H675     H      0.328790000000     0.406840000000     0.535860000000     0.0440365  
H676     H      0.455310000000     0.362560000000     0.500050000000     0.0475744  
H677     H      0.420420000000     0.323950000000     0.535170000000     0.0462103  
H678     H      0.432030000000     0.371860000000     0.546150000000     0.0466843  
H679     H      0.365320000000     0.447560000000     0.501670000000     0.046504   
H680     H      0.375220000000     0.423110000000     0.547380000000     0.0443624  
H681     H      0.384030000000     0.092140000000     0.538200000000     0.0452749  
H682     H      0.437670000000     0.142960000000     0.540870000000     0.0468406  
H683     H      0.449720000000     0.174400000000     0.496560000000     0.0493408  
H684     H      0.334910000000     0.108260000000     0.535350000000     0.046975   
H685     H      0.362860000000     0.085880000000     0.991000000000     0.0485289  
H686     H      0.347820000000     0.135470000000     0.990440000000     0.0453447  
H687     H      0.424530000000     0.193080000000     0.541930000000     0.0461968  
H688     H      0.400260000000     0.188720000000     0.494840000000     0.051599   
H689     H      0.822820000000     0.122050000000     0.800640000000     0.0465925  
H690     H      0.911680000000     0.186290000000     0.811500000000     0.0508955  
H691     H      0.963530000000     0.141750000000     0.799840000000     0.0473746  
H692     H      0.858410000000     0.100540000000     0.779210000000     0.0458791  
H693     H      0.869070000000     0.124960000000     0.838540000000     0.0479762  
H694     H      0.866430000000     0.076610000000     0.825920000000     0.0439961  
H695     H      0.920490000000     0.187180000000     0.775950000000     0.0443037  
H696     H      0.933720000000     0.117400000000     0.775730000000     0.0473261  
H697     H      0.881560000000     0.872910000000     0.842580000000     0.045706   
H698     H      0.844870000000     0.927070000000     0.870220000000     0.0450674  
H699     H      0.839840000000     0.909980000000     0.918020000000     0.0483121  
H700     H      0.932740000000     0.869700000000     0.846840000000     0.0485553  
H701     H      0.896260000000     0.819830000000     0.873270000000     0.0490979  
H702     H      0.925390000000     0.850670000000     0.893670000000     0.0439182  
H703     H      0.873060000000     0.959290000000     0.890290000000     0.0502463  
H704     H      0.891350000000     0.906230000000     0.920620000000     0.0449894  
H705     H      0.116940000000     0.910050000000     0.923900000000     0.0451594  
H706     H      0.079600000000     0.858230000000     0.897810000000     0.044354   
H707     H      0.084880000000     0.868830000000     0.848980000000     0.0493777  
H708     H      0.168400000000     0.905920000000     0.926560000000     0.0486209  
H709     H      0.149520000000     0.955160000000     0.892560000000     0.0497412  
H710     H      0.174980000000     0.915790000000     0.877530000000     0.045404   
H711     H      0.105410000000     0.819110000000     0.882680000000     0.0490306  
H712     H      0.136270000000     0.864160000000     0.850740000000     0.0473523  
H713     H      0.136100000000     0.164560000000     0.877930000000     0.0462679  
H714     H      0.108650000000     0.181030000000     0.832210000000     0.0452486  
H715     H      0.143510000000     0.153160000000     0.792780000000     0.0476339  
H716     H      0.134700000000     0.115480000000     0.889530000000     0.0482973  
H717     H      0.199230000000     0.137210000000     0.869410000000     0.046267   
H718     H      0.178410000000     0.095050000000     0.854500000000     0.0454181  
H719     H      0.080260000000     0.146160000000     0.814510000000     0.0495946  
H720     H      0.139790000000     0.105820000000     0.807660000000     0.0493286  
H721     H      0.962160000000     0.008630000000     0.737250000000     0.0441883  
H722     H      0.008410000000     0.067990000000     0.738170000000     0.0484193  
H723     H      0.073400000000     0.045540000000     0.751790000000     0.048804   
H724     H      0.963640000000     0.977250000000     0.708640000000     0.0474249  
H725     H      0.995920000000     0.948430000000     0.749060000000     0.0491879  
H726     H      0.029260000000     0.955580000000     0.721740000000     0.0503158  
H727     H      0.041710000000     0.073530000000     0.710540000000     0.0465236  
H728     H      0.075050000000     0.013830000000     0.723430000000     0.0439335  
H729     H      0.033640000000     0.960810000000     0.965050000000     0.0446352  
H730     H      0.957130000000     0.973310000000     0.963340000000     0.0434952  
H731     H      0.942790000000     0.000710000000     0.505830000000     0.0490294  
H732     H      0.064010000000     0.999600000000     0.954140000000     0.0496712  
H733     H      0.065180000000     0.991810000000     0.502830000000     0.0485342  
H734     H      0.047030000000     0.038320000000     0.493040000000     0.047636   
H735     H      0.942510000000     0.021790000000     0.956330000000     0.0477962  
H736     H      0.966000000000     0.045260000000     0.498030000000     0.0447021  
H737     H      0.910240000000     0.119700000000     0.542200000000     0.0454323  
H738     H      0.932710000000     0.169740000000     0.582390000000     0.0463872  
H739     H      0.875000000000     0.200090000000     0.599810000000     0.0483196  
H740     H      0.891080000000     0.074530000000     0.553150000000     0.0501091  
H741     H      0.840610000000     0.119950000000     0.538100000000     0.048675   
H742     H      0.835090000000     0.105550000000     0.572590000000     0.0445171  
H743     H      0.924550000000     0.152630000000     0.616050000000     0.0478748  
H744     H      0.855460000000     0.154630000000     0.610160000000     0.0435837  
H745     H      0.858510000000     0.945570000000     0.625160000000     0.0453992  
H746     H      0.927380000000     0.881580000000     0.663600000000     0.0491265  
H747     H      0.903340000000     0.816630000000     0.653770000000     0.0466454  
H748     H      0.854900000000     0.901430000000     0.606540000000     0.045952   
H749     H      0.851530000000     0.910500000000     0.668350000000     0.0467056  
H750     H      0.812360000000     0.898390000000     0.646490000000     0.0458224  
H751     H      0.948660000000     0.863100000000     0.633350000000     0.0458394  
H752     H      0.888450000000     0.831000000000     0.620690000000     0.0488467  
H753     H      0.146450000000     0.873460000000     0.596290000000     0.0453374  
H754     H      0.095500000000     0.841760000000     0.628640000000     0.0442154  
H755     H      0.120560000000     0.837690000000     0.674360000000     0.0488851  
H756     H      0.151710000000     0.925110000000     0.597590000000     0.0474442  
H757     H      0.204220000000     0.890880000000     0.621940000000     0.0501286  
H758     H      0.176670000000     0.921620000000     0.643510000000     0.0444839  
H759     H      0.068100000000     0.872640000000     0.650160000000     0.0492977  
H760     H      0.125840000000     0.889190000000     0.676020000000     0.0459116  
H761     H      0.173070000000     0.108040000000     0.603500000000     0.0462029  
H762     H      0.120470000000     0.165330000000     0.605830000000     0.0460537  
H763     H      0.121830000000     0.200300000000     0.563100000000     0.0460005  
H764     H      0.159520000000     0.065460000000     0.585530000000     0.0478187  
H765     H      0.204240000000     0.108320000000     0.559510000000     0.0473905  
H766     H      0.159090000000     0.100580000000     0.543060000000     0.0450456  
H767     H      0.075870000000     0.156420000000     0.588600000000     0.0471358  
H768     H      0.107880000000     0.157720000000     0.544800000000     0.0456482  
N1       N      0.000800000000     0.490290000000     0.262080000000    -0.156773   
N2       N      0.002160000000     0.474540000000     0.206190000000    -0.155492   
N3       N      0.981810000000     0.506020000000     0.009470000000    -0.157403   
N4       N      0.015970000000     0.484120000000     0.461520000000    -0.15883    
N5       N      0.509150000000     0.506320000000     0.383010000000    -0.157355   
N6       N      0.507650000000     0.515620000000     0.326150000000    -0.158681   
N7       N      0.495920000000     0.511590000000     0.131020000000    -0.155925   
N8       N      0.481240000000     0.533670000000     0.077370000000    -0.156929   
N9       N      0.864490000000     0.364180000000     0.313720000000    -0.157712   
N10      N      0.887740000000     0.417150000000     0.352410000000    -0.157078   
N11      N      0.613610000000     0.395460000000     0.230750000000    -0.157468   
N12      N      0.675020000000     0.370220000000     0.262070000000    -0.156634   
N13      N      0.780280000000     0.254530000000     0.430600000000    -0.156376   
N14      N      0.768530000000     0.249810000000     0.374630000000    -0.15632    
N15      N      0.793150000000     0.274460000000     0.179750000000    -0.157393   
N16      N      0.769430000000     0.287530000000     0.125340000000    -0.158199   
N17      N      0.877710000000     0.366910000000     0.036410000000    -0.157727   
N18      N      0.907590000000     0.395480000000     0.084630000000    -0.156556   
N19      N      0.666800000000     0.362540000000     0.011750000000    -0.156403   
N20      N      0.619010000000     0.427100000000     0.005190000000    -0.15597    
N21      N      0.903030000000     0.606610000000     0.379570000000    -0.15603    
N22      N      0.853940000000     0.668260000000     0.393070000000    -0.155669   
N23      N      0.610510000000     0.621490000000     0.468180000000    -0.155833   
N24      N      0.652880000000     0.667510000000     0.432210000000    -0.154777   
N25      N      0.767640000000     0.750650000000     0.268760000000    -0.154909   
N26      N      0.726330000000     0.775990000000     0.313700000000    -0.157176   
N27      N      0.757880000000     0.770090000000     0.013180000000    -0.156612   
N28      N      0.742330000000     0.775150000000     0.069790000000    -0.157184   
N29      N      0.912490000000     0.600440000000     0.131980000000    -0.15631    
N30      N      0.848780000000     0.647680000000     0.143300000000    -0.156193   
N31      N      0.616010000000     0.604820000000     0.215880000000    -0.157096   
N32      N      0.654460000000     0.647960000000     0.177170000000    -0.156978   
N33      N      0.601350000000     0.910010000000     0.205440000000    -0.156129   
N34      N      0.649560000000     0.846140000000     0.195340000000    -0.156022   
N35      N      0.665480000000     0.170970000000     0.258370000000    -0.15789    
N36      N      0.608660000000     0.117800000000     0.238870000000    -0.157193   
N37      N      0.504420000000     0.039170000000     0.375630000000    -0.155619   
N38      N      0.505100000000     0.027960000000     0.319290000000    -0.156577   
N39      N      0.486080000000     0.020120000000     0.074180000000    -0.1569     
N40      N      0.519330000000     0.045180000000     0.122000000000    -0.157521   
N41      N      0.658740000000     0.874930000000     0.434420000000    -0.154996   
N42      N      0.595960000000     0.914610000000     0.456250000000    -0.156492   
N43      N      0.621300000000     0.104700000000     0.000620000000    -0.155717   
N44      N      0.673570000000     0.165430000000     0.010570000000    -0.155011   
N45      N      0.113580000000     0.595220000000     0.376560000000    -0.157837   
N46      N      0.154290000000     0.660880000000     0.391620000000    -0.156877   
N47      N      0.350130000000     0.665760000000     0.436090000000    -0.155685   
N48      N      0.406990000000     0.612740000000     0.453390000000    -0.155975   
N49      N      0.405320000000     0.921960000000     0.458720000000    -0.156469   
N50      N      0.349910000000     0.867720000000     0.437770000000    -0.156232   
N51      N      0.248990000000     0.746720000000     0.266460000000    -0.156295   
N52      N      0.268990000000     0.780200000000     0.315880000000    -0.155813   
N53      N      0.281980000000     0.755990000000     0.063400000000    -0.156815   
N54      N      0.237030000000     0.760110000000     0.016900000000    -0.156195   
N55      N      0.156070000000     0.660310000000     0.144340000000    -0.155389   
N56      N      0.099920000000     0.603870000000     0.127730000000    -0.155519   
N57      N      0.419750000000     0.603880000000     0.199360000000    -0.1569     
N58      N      0.363110000000     0.657810000000     0.183950000000    -0.15562    
N59      N      0.344970000000     0.870600000000     0.186660000000    -0.158261   
N60      N      0.407870000000     0.915930000000     0.200830000000    -0.157211   
N61      N      0.152480000000     0.342760000000     0.324420000000    -0.155479   
N62      N      0.092900000000     0.395300000000     0.337260000000    -0.155488   
N63      N      0.409000000000     0.409800000000     0.256130000000    -0.157743   
N64      N      0.356660000000     0.353780000000     0.274720000000    -0.156656   
N65      N      0.364500000000     0.150730000000     0.286010000000    -0.156021   
N66      N      0.399700000000     0.114380000000     0.242040000000    -0.155608   
N67      N      0.293030000000     0.279840000000     0.401680000000    -0.157776   
N68      N      0.273510000000     0.248710000000     0.451310000000    -0.156175   
N69      N      0.271160000000     0.249440000000     0.149890000000    -0.155469   
N70      N      0.257800000000     0.248630000000     0.206020000000    -0.156908   
N71      N      0.120340000000     0.417390000000     0.079490000000    -0.156432   
N72      N      0.172110000000     0.357070000000     0.068160000000    -0.155979   
N73      N      0.373100000000     0.363850000000     0.037730000000    -0.156952   
N74      N      0.411810000000     0.406830000000     0.998490000000    -0.156618   
N75      N      0.408310000000     0.128460000000     0.991600000000    -0.157999   
N76      N      0.377530000000     0.152760000000     0.040310000000    -0.159073   
N77      N      0.917780000000     0.107420000000     0.316320000000    -0.158608   
N78      N      0.868750000000     0.159320000000     0.287930000000    -0.159575   
N79      N      0.865940000000     0.862050000000     0.397380000000    -0.156315   
N80      N      0.904760000000     0.917570000000     0.366420000000    -0.155652   
N81      N      0.115270000000     0.915010000000     0.369060000000    -0.156569   
N82      N      0.139380000000     0.859610000000     0.405770000000    -0.157633   
N83      N      0.174980000000     0.144310000000     0.329720000000    -0.158529   
N84      N      0.104770000000     0.127300000000     0.352510000000    -0.15946    
N85      N      0.035210000000     0.996090000000     0.253250000000    -0.157017   
N86      N      0.001520000000     0.026730000000     0.207260000000    -0.157664   
N87      N      0.004580000000     0.000660000000     0.008240000000    -0.155698   
N88      N      0.002610000000     0.009670000000     0.451720000000    -0.156451   
N89      N      0.854680000000     0.162670000000     0.068000000000    -0.156922   
N90      N      0.913370000000     0.112180000000     0.084370000000    -0.156232   
N91      N      0.854690000000     0.854240000000     0.152180000000    -0.158078   
N92      N      0.907070000000     0.907820000000     0.127850000000    -0.158833   
N93      N      0.165530000000     0.862330000000     0.149910000000    -0.156208   
N94      N      0.107050000000     0.900900000000     0.122340000000    -0.157609   
N95      N      0.165060000000     0.156520000000     0.059110000000    -0.154739   
N96      N      0.115660000000     0.109050000000     0.089890000000    -0.153877   
N97      N      0.000800000000     0.490290000000     0.762080000000    -0.156766   
N98      N      0.002160000000     0.474540000000     0.706190000000    -0.155485   
N99      N      0.981810000000     0.506020000000     0.509470000000    -0.157591   
N100     N      0.015970000000     0.484120000000     0.961520000000    -0.158849   
N101     N      0.509150000000     0.506320000000     0.883010000000    -0.157354   
N102     N      0.507650000000     0.515620000000     0.826150000000    -0.15868    
N103     N      0.495920000000     0.511590000000     0.631020000000    -0.155923   
N104     N      0.481230000000     0.533670000000     0.577370000000    -0.15693    
N105     N      0.864490000000     0.364180000000     0.813720000000    -0.157749   
N106     N      0.887740000000     0.417150000000     0.852410000000    -0.157074   
N107     N      0.613610000000     0.395460000000     0.730750000000    -0.157429   
N108     N      0.675020000000     0.370220000000     0.762070000000    -0.156642   
N109     N      0.780280000000     0.254530000000     0.930600000000    -0.156415   
N110     N      0.768530000000     0.249810000000     0.874630000000    -0.156322   
N111     N      0.793150000000     0.274460000000     0.679750000000    -0.157398   
N112     N      0.769430000000     0.287530000000     0.625340000000    -0.158194   
N113     N      0.877710000000     0.366910000000     0.536410000000    -0.157731   
N114     N      0.907590000000     0.395480000000     0.584630000000    -0.156526   
N115     N      0.666800000000     0.362540000000     0.511750000000    -0.156478   
N116     N      0.619010000000     0.427090000000     0.505180000000    -0.156188   
N117     N      0.903030000000     0.606610000000     0.879570000000    -0.155979   
N118     N      0.853940000000     0.668260000000     0.893070000000    -0.155707   
N119     N      0.610510000000     0.621490000000     0.968180000000    -0.15583    
N120     N      0.652880000000     0.667510000000     0.932210000000    -0.154792   
N121     N      0.767640000000     0.750650000000     0.768760000000    -0.154843   
N122     N      0.726330000000     0.775990000000     0.813700000000    -0.157169   
N123     N      0.757880000000     0.770090000000     0.513180000000    -0.156744   
N124     N      0.742330000000     0.775150000000     0.569790000000    -0.157189   
N125     N      0.912490000000     0.600440000000     0.631980000000    -0.156277   
N126     N      0.848780000000     0.647680000000     0.643300000000    -0.156252   
N127     N      0.616010000000     0.604830000000     0.715880000000    -0.157063   
N128     N      0.654460000000     0.647960000000     0.677170000000    -0.156989   
N129     N      0.601350000000     0.910010000000     0.705440000000    -0.156129   
N130     N      0.649560000000     0.846140000000     0.695340000000    -0.156053   
N131     N      0.665480000000     0.170970000000     0.758370000000    -0.157935   
N132     N      0.608660000000     0.117800000000     0.738870000000    -0.157155   
N133     N      0.504420000000     0.039170000000     0.875630000000    -0.155616   
N134     N      0.505100000000     0.027960000000     0.819290000000    -0.156578   
N135     N      0.486080000000     0.020120000000     0.574180000000    -0.156908   
N136     N      0.519320000000     0.045180000000     0.622000000000    -0.157532   
N137     N      0.658740000000     0.874930000000     0.934420000000    -0.155012   
N138     N      0.595960000000     0.914610000000     0.956250000000    -0.156449   
N139     N      0.621300000000     0.104700000000     0.500620000000    -0.155949   
N140     N      0.673570000000     0.165430000000     0.510560000000    -0.155044   
N141     N      0.113580000000     0.595220000000     0.876550000000    -0.157856   
N142     N      0.154290000000     0.660880000000     0.891620000000    -0.156829   
N143     N      0.350130000000     0.665760000000     0.936090000000    -0.155688   
N144     N      0.406990000000     0.612740000000     0.953390000000    -0.155982   
N145     N      0.405320000000     0.921960000000     0.958720000000    -0.15643    
N146     N      0.349910000000     0.867720000000     0.937770000000    -0.156219   
N147     N      0.248990000000     0.746710000000     0.766460000000    -0.156226   
N148     N      0.268990000000     0.780200000000     0.815880000000    -0.155826   
N149     N      0.281980000000     0.755990000000     0.563400000000    -0.156825   
N150     N      0.237030000000     0.760110000000     0.516900000000    -0.156278   
N151     N      0.156070000000     0.660310000000     0.644340000000    -0.15539    
N152     N      0.099920000000     0.603870000000     0.627730000000    -0.155483   
N153     N      0.419760000000     0.603880000000     0.699360000000    -0.15694    
N154     N      0.363120000000     0.657810000000     0.683950000000    -0.155545   
N155     N      0.344970000000     0.870600000000     0.686660000000    -0.158277   
N156     N      0.407870000000     0.915930000000     0.700830000000    -0.157206   
N157     N      0.152480000000     0.342760000000     0.824420000000    -0.155488   
N158     N      0.092900000000     0.395300000000     0.837260000000    -0.15548    
N159     N      0.409000000000     0.409800000000     0.756130000000    -0.157715   
N160     N      0.356660000000     0.353780000000     0.774710000000    -0.156626   
N161     N      0.364510000000     0.150730000000     0.786010000000    -0.155984   
N162     N      0.399700000000     0.114380000000     0.742040000000    -0.155604   
N163     N      0.293030000000     0.279840000000     0.901680000000    -0.157775   
N164     N      0.273510000000     0.248710000000     0.951310000000    -0.15625    
N165     N      0.271160000000     0.249440000000     0.649890000000    -0.155485   
N166     N      0.257800000000     0.248630000000     0.706020000000    -0.156904   
N167     N      0.120340000000     0.417390000000     0.579490000000    -0.156477   
N168     N      0.172110000000     0.357070000000     0.568160000000    -0.15598    
N169     N      0.373100000000     0.363850000000     0.537730000000    -0.156971   
N170     N      0.411810000000     0.406830000000     0.498490000000    -0.156421   
N171     N      0.408310000000     0.128460000000     0.491600000000    -0.157882   
N172     N      0.377530000000     0.152760000000     0.540310000000    -0.159088   
N173     N      0.917780000000     0.107420000000     0.816320000000    -0.158595   
N174     N      0.868750000000     0.159320000000     0.787940000000    -0.159558   
N175     N      0.865940000000     0.862050000000     0.897380000000    -0.156319   
N176     N      0.904760000000     0.917570000000     0.866420000000    -0.155643   
N177     N      0.115270000000     0.915010000000     0.869060000000    -0.156592   
N178     N      0.139380000000     0.859610000000     0.905770000000    -0.157628   
N179     N      0.174980000000     0.144310000000     0.829720000000    -0.158524   
N180     N      0.104770000000     0.127300000000     0.852510000000    -0.159442   
N181     N      0.035210000000     0.996090000000     0.753250000000    -0.157025   
N182     N      0.001520000000     0.026730000000     0.707260000000    -0.157658   
N183     N      0.004580000000     0.000660000000     0.508240000000    -0.15591    
N184     N      0.002610000000     0.009670000000     0.951720000000    -0.156473   
N185     N      0.854680000000     0.162670000000     0.568000000000    -0.156958   
N186     N      0.913380000000     0.112170000000     0.584370000000    -0.156282   
N187     N      0.854690000000     0.854230000000     0.652180000000    -0.158119   
N188     N      0.907070000000     0.907820000000     0.627850000000    -0.158839   
N189     N      0.165530000000     0.862330000000     0.649910000000    -0.156182   
N190     N      0.107050000000     0.900890000000     0.622340000000    -0.157532   
N191     N      0.165060000000     0.156520000000     0.559110000000    -0.15474    
N192     N      0.115660000000     0.109050000000     0.589890000000    -0.153865   
O1       O      0.010090000000     0.009610000000     0.107610000000    -0.36903    
O2       O      0.963990000000     0.092950000000     0.111150000000    -0.295082   
O3       O      0.974920000000     0.993110000000     0.048790000000    -0.302133   
O4       O      0.091780000000     0.047740000000     0.087890000000    -0.297717   
O5       O      0.934740000000     0.050570000000     0.084990000000    -0.307922   
O6       O      0.058010000000     0.092240000000     0.109530000000    -0.292362   
O7       O      0.038620000000     0.997840000000     0.047520000000    -0.300978   
O8       O      0.054080000000     0.935300000000     0.133540000000    -0.31254    
O9       O      0.924870000000     0.961410000000     0.103370000000    -0.300691   
O10      O      0.087170000000     0.953620000000     0.097910000000    -0.301405   
O11      O      0.966200000000     0.933840000000     0.130780000000    -0.315788   
O12      O      0.002680000000     0.991730000000     0.169260000000    -0.314048   
O13      O      0.011440000000     0.054970000000     0.165770000000    -0.29481    
O14      O      0.012680000000     0.012990000000     0.352780000000    -0.377132   
O15      O      0.036220000000     0.015870000000     0.413010000000    -0.310581   
O16      O      0.933540000000     0.066320000000     0.351150000000    -0.298027   
O17      O      0.057380000000     0.090300000000     0.335480000000    -0.321253   
O18      O      0.973680000000     0.027990000000     0.411960000000    -0.296533   
O19      O      0.085380000000     0.070800000000     0.372600000000    -0.306516   
O20      O      0.974600000000     0.076840000000     0.317850000000    -0.318      
O21      O      0.015350000000     0.970150000000     0.293770000000    -0.298693   
O22      O      0.931330000000     0.977250000000     0.369680000000    -0.303672   
O23      O      0.040910000000     0.028410000000     0.292400000000    -0.314909   
O24      O      0.962750000000     0.932920000000     0.346440000000    -0.295297   
O25      O      0.058710000000     0.932840000000     0.348710000000    -0.298747   
O26      O      0.091370000000     0.975730000000     0.372750000000    -0.306233   
O27      O      0.273820000000     0.255510000000     0.051000000000    -0.368933   
O28      O      0.188340000000     0.214170000000     0.042640000000    -0.292593   
O29      O      0.319300000000     0.171210000000     0.057600000000    -0.30329    
O30      O      0.303460000000     0.248160000000     0.491690000000    -0.308789   
O31      O      0.227340000000     0.174960000000     0.064730000000    -0.299888   
O32      O      0.239980000000     0.256860000000     0.990880000000    -0.296214   
O33      O      0.356270000000     0.214060000000     0.037560000000    -0.313525   
O34      O      0.320450000000     0.339690000000     0.059990000000    -0.298887   
O35      O      0.277000000000     0.219030000000     0.109380000000    -0.301306   
O36      O      0.351340000000     0.303150000000     0.030800000000    -0.3081     
O37      O      0.284280000000     0.282760000000     0.111450000000    -0.302221   
O38      O      0.230990000000     0.330260000000     0.074580000000    -0.306348   
O39      O      0.195130000000     0.307920000000     0.041400000000    -0.297035   
O40      O      0.264510000000     0.252490000000     0.305130000000    -0.377201   
O41      O      0.211820000000     0.195680000000     0.341050000000    -0.309064   
O42      O      0.254120000000     0.217310000000     0.246220000000    -0.306068   
O43      O      0.204740000000     0.325440000000     0.298870000000    -0.302097   
O44      O      0.209480000000     0.177380000000     0.298460000000    -0.306846   
O45      O      0.184030000000     0.285650000000     0.330470000000    -0.305391   
O46      O      0.244190000000     0.280290000000     0.245080000000    -0.305015   
O47      O      0.342280000000     0.301750000000     0.301160000000    -0.301151   
O48      O      0.302130000000     0.170280000000     0.288590000000    -0.302089   
O49      O      0.295370000000     0.331740000000     0.279490000000    -0.304068   
O50      O      0.347510000000     0.208870000000     0.304630000000    -0.297391   
O51      O      0.316830000000     0.261860000000     0.360130000000    -0.29661    
O52      O      0.254110000000     0.268230000000     0.366480000000    -0.314404   
O53      O      0.260800000000     0.756060000000     0.164570000000    -0.371277   
O54      O      0.281730000000     0.744240000000     0.227230000000    -0.309707   
O55      O      0.182310000000     0.806050000000     0.171620000000    -0.296041   
O56      O      0.311880000000     0.835540000000     0.155550000000    -0.30638    
O57      O      0.219530000000     0.756720000000     0.225230000000    -0.294781   
O58      O      0.321610000000     0.810800000000     0.195860000000    -0.309422   
O59      O      0.222960000000     0.833060000000     0.142890000000    -0.306626   
O60      O      0.279260000000     0.723630000000     0.103590000000    -0.301793   
O61      O      0.179090000000     0.709450000000     0.170980000000    -0.292048   
O62      O      0.277960000000     0.787280000000     0.103620000000    -0.30615    
O63      O      0.217180000000     0.682840000000     0.140180000000    -0.299642   
O64      O      0.310040000000     0.676580000000     0.159500000000    -0.299366   
O65      O      0.340770000000     0.719260000000     0.184790000000    -0.308139   
O66      O      0.250350000000     0.765940000000     0.416260000000    -0.371247   
O67      O      0.295940000000     0.767930000000     0.357760000000    -0.293296   
O68      O      0.188210000000     0.715170000000     0.382350000000    -0.308897   
O69      O      0.287600000000     0.684800000000     0.434490000000    -0.301726   
O70      O      0.233870000000     0.781420000000     0.354040000000    -0.310238   
O71      O      0.331720000000     0.720880000000     0.414290000000    -0.297987   
O72      O      0.194760000000     0.688620000000     0.422440000000    -0.303202   
O73      O      0.236980000000     0.794250000000     0.477510000000    -0.301889   
O74      O      0.170000000000     0.803590000000     0.395840000000    -0.30926    
O75      O      0.235360000000     0.730510000000     0.475820000000    -0.302194   
O76      O      0.195560000000     0.841930000000     0.426530000000    -0.303373   
O77      O      0.288590000000     0.844950000000     0.438350000000    -0.302381   
O78      O      0.332300000000     0.813050000000     0.414690000000    -0.295513   
O79      O      0.505880000000     0.023800000000     0.474870000000    -0.375931   
O80      O      0.425180000000     0.071750000000     0.471260000000    -0.305754   
O81      O      0.488480000000     0.051150000000     0.034230000000    -0.310416   
O82      O      0.461260000000     0.940650000000     0.980190000000    -0.29323    
O83      O      0.470530000000     0.109450000000     0.987330000000    -0.309551   
O84      O      0.428390000000     0.982780000000     0.455810000000    -0.305571   
O85      O      0.500310000000     0.988210000000     0.034780000000    -0.296486   
O86      O      0.572410000000     0.974320000000     0.448130000000    -0.301966   
O87      O      0.558060000000     0.088690000000     0.003250000000    -0.308773   
O88      O      0.555950000000     0.944850000000     0.986070000000    -0.295212   
O89      O      0.592270000000     0.063560000000     0.470160000000    -0.298003   
O90      O      0.536490000000     0.042100000000     0.415550000000    -0.303606   
O91      O      0.472710000000     0.038610000000     0.415920000000    -0.302719   
O92      O      0.505870000000     0.019910000000     0.220650000000    -0.375508   
O93      O      0.457210000000     0.100100000000     0.221780000000    -0.297784   
O94      O      0.434410000000     0.958760000000     0.230750000000    -0.303162   
O95      O      0.516820000000     0.007950000000     0.158890000000    -0.316361   
O96      O      0.421620000000     0.052630000000     0.238260000000    -0.300416   
O97      O      0.505390000000     0.070320000000     0.164080000000    -0.294923   
O98      O      0.456770000000     0.955700000000     0.189200000000    -0.312132   
O99      O      0.581820000000     0.962150000000     0.230810000000    -0.300311   
O100     O      0.474050000000     0.012070000000     0.280470000000    -0.304457   
O101     O      0.546970000000     0.943730000000     0.196070000000    -0.310643   
O102     O      0.537740000000     0.013860000000     0.280640000000    -0.303058   
O103     O      0.587220000000     0.056050000000     0.237440000000    -0.303277   
O104     O      0.550040000000     0.102310000000     0.220830000000    -0.297874   
O105     O      0.753340000000     0.752470000000     0.169060000000    -0.374418   
O106     O      0.798640000000     0.836210000000     0.173340000000    -0.301307   
O107     O      0.820080000000     0.705910000000     0.137840000000    -0.310205   
O108     O      0.762290000000     0.718610000000     0.228590000000    -0.298536   
O109     O      0.834830000000     0.792240000000     0.153910000000    -0.311461   
O110     O      0.776130000000     0.781240000000     0.228560000000    -0.300331   
O111     O      0.806530000000     0.672820000000     0.174540000000    -0.29908    
O112     O      0.672610000000     0.707000000000     0.161150000000    -0.29795    
O113     O      0.774520000000     0.772540000000     0.109060000000    -0.311467   
O114     O      0.714780000000     0.671110000000     0.183470000000    -0.303596   
O115     O      0.712160000000     0.758910000000     0.109600000000    -0.295594   
O116     O      0.672060000000     0.799980000000     0.166070000000    -0.297371   
O117     O      0.711340000000     0.824550000000     0.196620000000    -0.30435    
O118     O      0.753400000000     0.769760000000     0.413090000000    -0.371646   
O119     O      0.832280000000     0.807240000000     0.388730000000    -0.307195   
O120     O      0.717630000000     0.846980000000     0.437540000000    -0.302408   
O121     O      0.704210000000     0.764930000000     0.356620000000    -0.294722   
O122     O      0.810600000000     0.846260000000     0.420370000000    -0.299326   
O123     O      0.765050000000     0.781750000000     0.349840000000    -0.309392   
O124     O      0.675130000000     0.821950000000     0.409130000000    -0.294558   
O125     O      0.715490000000     0.686840000000     0.429080000000    -0.298873   
O126     O      0.772630000000     0.799310000000     0.473490000000    -0.302184   
O127     O      0.669810000000     0.726810000000     0.415270000000    -0.294915   
O128     O      0.758300000000     0.737020000000     0.473350000000    -0.300641   
O129     O      0.810400000000     0.695330000000     0.422450000000    -0.298871   
O130     O      0.815100000000     0.717930000000     0.380910000000    -0.307238   
O131     O      0.772630000000     0.267050000000     0.027700000000    -0.380841   
O132     O      0.727460000000     0.340080000000     0.005560000000    -0.306044   
O133     O      0.694690000000     0.216900000000     0.035840000000    -0.296379   
O134     O      0.798140000000     0.230110000000     0.971270000000    -0.301012   
O135     O      0.691100000000     0.311910000000     0.036370000000    -0.297429   
O136     O      0.780420000000     0.291620000000     0.968210000000    -0.305345   
O137     O      0.734180000000     0.189850000000     0.006390000000    -0.302272   
O138     O      0.834520000000     0.224860000000     0.065260000000    -0.311446   
O139     O      0.738220000000     0.267090000000     0.087160000000    -0.300321   
O140     O      0.820260000000     0.185510000000     0.031790000000    -0.301208   
O141     O      0.792180000000     0.300760000000     0.083820000000    -0.312258   
O142     O      0.856310000000     0.305280000000     0.037990000000    -0.310979   
O143     O      0.819400000000     0.348690000000     0.018630000000    -0.300679   
O144     O      0.771410000000     0.265720000000     0.276880000000    -0.381277   
O145     O      0.822510000000     0.345790000000     0.280350000000    -0.302155   
O146     O      0.791620000000     0.233370000000     0.333710000000    -0.309692   
O147     O      0.694850000000     0.316450000000     0.285000000000    -0.300851   
O148     O      0.839510000000     0.303910000000     0.311560000000    -0.312457   
O149     O      0.735280000000     0.345390000000     0.257140000000    -0.304341   
O150     O      0.736620000000     0.265720000000     0.335670000000    -0.299442   
O151     O      0.725710000000     0.194110000000     0.253650000000    -0.309787   
O152     O      0.853050000000     0.222470000000     0.286170000000    -0.312509   
O153     O      0.687290000000     0.223010000000     0.282870000000    -0.29717    
O154     O      0.811730000000     0.180480000000     0.270450000000    -0.305819   
O155     O      0.786510000000     0.238510000000     0.217790000000    -0.305157   
O156     O      0.796830000000     0.301750000000     0.221260000000    -0.303365   
O157     O      0.508620000000     0.516970000000     0.981020000000    -0.372053   
O158     O      0.559820000000     0.452960000000     0.012550000000    -0.307302   
O159     O      0.540960000000     0.510190000000     0.422760000000    -0.303998   
O160     O      0.427590000000     0.464080000000     0.478140000000    -0.30048    
O161     O      0.589950000000     0.467860000000     0.474850000000    -0.30143    
O162     O      0.472510000000     0.431440000000     0.999290000000    -0.305893   
O163     O      0.478860000000     0.493880000000     0.422660000000    -0.300475   
O164     O      0.460600000000     0.598170000000     0.978450000000    -0.296882   
O165     O      0.589100000000     0.559680000000     0.464490000000    -0.30223    
O166     O      0.429360000000     0.551560000000     0.457330000000    -0.30378    
O167     O      0.552510000000     0.601960000000     0.985760000000    -0.296124   
O168     O      0.498350000000     0.562540000000     0.037340000000    -0.294832   
O169     O      0.490870000000     0.498830000000     0.039910000000    -0.311934   
O170     O      0.513970000000     0.502390000000     0.227020000000    -0.375681   
O171     O      0.429990000000     0.454890000000     0.225400000000    -0.302423   
O172     O      0.560920000000     0.426800000000     0.246180000000    -0.312429   
O173     O      0.537500000000     0.507350000000     0.166470000000    -0.301237   
O174     O      0.470950000000     0.429340000000     0.253960000000    -0.314847   
O175     O      0.480610000000     0.478720000000     0.169260000000    -0.302629   
O176     O      0.589790000000     0.449610000000     0.209870000000    -0.300934   
O177     O      0.558160000000     0.585010000000     0.232650000000    -0.300543   
O178     O      0.516750000000     0.482760000000     0.287880000000    -0.314711   
O179     O      0.594520000000     0.543400000000     0.210370000000    -0.303507   
O180     O      0.510800000000     0.546450000000     0.285270000000    -0.297619   
O181     O      0.466690000000     0.583780000000     0.228730000000    -0.299189   
O182     O      0.439370000000     0.541510000000     0.201470000000    -0.308173   
O183     O      0.006100000000     0.496860000000     0.107960000000    -0.376328   
O184     O      0.969510000000     0.412250000000     0.093720000000    -0.307518   
O185     O      0.971790000000     0.473660000000     0.165460000000    -0.301951   
O186     O      0.091050000000     0.455490000000     0.111550000000    -0.299605   
O187     O      0.923550000000     0.451300000000     0.107000000000    -0.301283   
O188     O      0.057170000000     0.433640000000     0.077150000000    -0.30969    
O189     O      0.035610000000     0.476540000000     0.166780000000    -0.303567   
O190     O      0.055480000000     0.577160000000     0.098870000000    -0.293222   
O191     O      0.932570000000     0.538220000000     0.132330000000    -0.305881   
O192     O      0.075100000000     0.544010000000     0.134520000000    -0.300383   
O193     O      0.960960000000     0.578810000000     0.104280000000    -0.296193   
O194     O      0.998900000000     0.535870000000     0.049040000000    -0.298794   
O195     O      0.986840000000     0.473020000000     0.048500000000    -0.311951   
O196     O      0.003010000000     0.503280000000     0.361580000000    -0.372754   
O197     O      0.076600000000     0.458720000000     0.338830000000    -0.302782   
O198     O      0.005130000000     0.456270000000     0.420060000000    -0.29831    
O199     O      0.054340000000     0.572110000000     0.386050000000    -0.309943   
O200     O      0.042320000000     0.417310000000     0.362900000000    -0.296242   
O201     O      0.083250000000     0.552480000000     0.348780000000    -0.30226    
O202     O      0.011820000000     0.519360000000     0.423690000000    -0.31575    
O203     O      0.931940000000     0.565130000000     0.349990000000    -0.302156   
O204     O      0.948130000000     0.428050000000     0.369400000000    -0.299547   
O205     O      0.958150000000     0.574400000000     0.390060000000    -0.306317   
O206     O      0.918940000000     0.473890000000     0.346030000000    -0.305447   
O207     O      0.969500000000     0.507740000000     0.300640000000    -0.304362   
O208     O      0.032970000000     0.508770000000     0.299820000000    -0.306288   
O209     O      0.010090000000     0.009610000000     0.607610000000    -0.369008   
O210     O      0.963990000000     0.092950000000     0.611150000000    -0.295186   
O211     O      0.974920000000     0.993110000000     0.548790000000    -0.302222   
O212     O      0.091780000000     0.047740000000     0.587890000000    -0.297727   
O213     O      0.934740000000     0.050570000000     0.584990000000    -0.307977   
O214     O      0.058010000000     0.092240000000     0.609530000000    -0.292364   
O215     O      0.038620000000     0.997840000000     0.547520000000    -0.301017   
O216     O      0.054080000000     0.935300000000     0.633540000000    -0.312476   
O217     O      0.924870000000     0.961410000000     0.603370000000    -0.30068    
O218     O      0.087170000000     0.953620000000     0.597900000000    -0.301273   
O219     O      0.966200000000     0.933840000000     0.630780000000    -0.315784   
O220     O      0.002680000000     0.991730000000     0.669260000000    -0.314045   
O221     O      0.011440000000     0.054970000000     0.665770000000    -0.294803   
O222     O      0.012680000000     0.012990000000     0.852780000000    -0.377131   
O223     O      0.036220000000     0.015870000000     0.913010000000    -0.310591   
O224     O      0.933540000000     0.066320000000     0.851150000000    -0.298027   
O225     O      0.057380000000     0.090300000000     0.835480000000    -0.321211   
O226     O      0.973680000000     0.027990000000     0.911960000000    -0.296542   
O227     O      0.085380000000     0.070800000000     0.872610000000    -0.306394   
O228     O      0.974600000000     0.076840000000     0.817850000000    -0.318004   
O229     O      0.015350000000     0.970150000000     0.793760000000    -0.298706   
O230     O      0.931320000000     0.977250000000     0.869680000000    -0.303646   
O231     O      0.040910000000     0.028410000000     0.792410000000    -0.314911   
O232     O      0.962750000000     0.932920000000     0.846440000000    -0.295298   
O233     O      0.058710000000     0.932840000000     0.848710000000    -0.298766   
O234     O      0.091370000000     0.975730000000     0.872740000000    -0.3063     
O235     O      0.273820000000     0.255510000000     0.551000000000    -0.368939   
O236     O      0.188330000000     0.214170000000     0.542640000000    -0.292579   
O237     O      0.319300000000     0.171210000000     0.557600000000    -0.303301   
O238     O      0.303460000000     0.248160000000     0.991690000000    -0.308798   
O239     O      0.227340000000     0.174960000000     0.564730000000    -0.299895   
O240     O      0.239980000000     0.256860000000     0.490880000000    -0.296192   
O241     O      0.356270000000     0.214060000000     0.537560000000    -0.313558   
O242     O      0.320450000000     0.339690000000     0.559990000000    -0.298976   
O243     O      0.277000000000     0.219030000000     0.609380000000    -0.301305   
O244     O      0.351340000000     0.303150000000     0.530800000000    -0.308087   
O245     O      0.284280000000     0.282760000000     0.611450000000    -0.30222    
O246     O      0.230990000000     0.330260000000     0.574580000000    -0.30635    
O247     O      0.195130000000     0.307920000000     0.541400000000    -0.297055   
O248     O      0.264510000000     0.252490000000     0.805130000000    -0.3772     
O249     O      0.211820000000     0.195680000000     0.841050000000    -0.309066   
O250     O      0.254120000000     0.217310000000     0.746220000000    -0.306067   
O251     O      0.204740000000     0.325440000000     0.798870000000    -0.302097   
O252     O      0.209480000000     0.177380000000     0.798460000000    -0.306845   
O253     O      0.184030000000     0.285650000000     0.830470000000    -0.305392   
O254     O      0.244190000000     0.280290000000     0.745080000000    -0.305013   
O255     O      0.342280000000     0.301750000000     0.801160000000    -0.301139   
O256     O      0.302130000000     0.170280000000     0.788590000000    -0.302076   
O257     O      0.295370000000     0.331740000000     0.779490000000    -0.304055   
O258     O      0.347510000000     0.208870000000     0.804630000000    -0.297373   
O259     O      0.316830000000     0.261860000000     0.860130000000    -0.296612   
O260     O      0.254110000000     0.268230000000     0.866480000000    -0.314407   
O261     O      0.260800000000     0.756060000000     0.664570000000    -0.371311   
O262     O      0.281730000000     0.744240000000     0.727230000000    -0.309799   
O263     O      0.182310000000     0.806050000000     0.671620000000    -0.296012   
O264     O      0.311880000000     0.835540000000     0.655550000000    -0.306342   
O265     O      0.219530000000     0.756720000000     0.725230000000    -0.294877   
O266     O      0.321610000000     0.810800000000     0.695860000000    -0.309397   
O267     O      0.222960000000     0.833060000000     0.642880000000    -0.30654    
O268     O      0.279260000000     0.723630000000     0.603590000000    -0.301746   
O269     O      0.179090000000     0.709450000000     0.670980000000    -0.292049   
O270     O      0.277960000000     0.787280000000     0.603620000000    -0.306143   
O271     O      0.217180000000     0.682840000000     0.640180000000    -0.299638   
O272     O      0.310040000000     0.676580000000     0.659500000000    -0.299376   
O273     O      0.340770000000     0.719260000000     0.684790000000    -0.308224   
O274     O      0.250350000000     0.765940000000     0.916260000000    -0.371247   
O275     O      0.295940000000     0.767930000000     0.857760000000    -0.293328   
O276     O      0.188210000000     0.715170000000     0.882350000000    -0.308918   
O277     O      0.287600000000     0.684800000000     0.934490000000    -0.301739   
O278     O      0.233870000000     0.781420000000     0.854030000000    -0.310261   
O279     O      0.331720000000     0.720880000000     0.914290000000    -0.297987   
O280     O      0.194760000000     0.688620000000     0.922450000000    -0.30309    
O281     O      0.236980000000     0.794250000000     0.977510000000    -0.301907   
O282     O      0.170000000000     0.803590000000     0.895840000000    -0.30926    
O283     O      0.235360000000     0.730510000000     0.975820000000    -0.302206   
O284     O      0.195560000000     0.841930000000     0.926530000000    -0.303386   
O285     O      0.288590000000     0.844950000000     0.938350000000    -0.302361   
O286     O      0.332300000000     0.813040000000     0.914690000000    -0.295447   
O287     O      0.505880000000     0.023800000000     0.974860000000    -0.375898   
O288     O      0.425180000000     0.071750000000     0.971260000000    -0.305774   
O289     O      0.488480000000     0.051150000000     0.534230000000    -0.310454   
O290     O      0.461260000000     0.940660000000     0.480190000000    -0.293273   
O291     O      0.470530000000     0.109450000000     0.487330000000    -0.309524   
O292     O      0.428390000000     0.982780000000     0.955800000000    -0.305509   
O293     O      0.500310000000     0.988210000000     0.534780000000    -0.296585   
O294     O      0.572410000000     0.974330000000     0.948130000000    -0.301841   
O295     O      0.558060000000     0.088690000000     0.503250000000    -0.309044   
O296     O      0.555950000000     0.944850000000     0.486070000000    -0.295119   
O297     O      0.592270000000     0.063560000000     0.970160000000    -0.297939   
O298     O      0.536490000000     0.042100000000     0.915550000000    -0.303605   
O299     O      0.472710000000     0.038610000000     0.915920000000    -0.302708   
O300     O      0.505870000000     0.019910000000     0.720650000000    -0.37551    
O301     O      0.457210000000     0.100100000000     0.721780000000    -0.297782   
O302     O      0.434410000000     0.958770000000     0.730750000000    -0.303136   
O303     O      0.516820000000     0.007950000000     0.658890000000    -0.316375   
O304     O      0.421620000000     0.052630000000     0.738260000000    -0.300412   
O305     O      0.505390000000     0.070320000000     0.664080000000    -0.294928   
O306     O      0.456770000000     0.955700000000     0.689200000000    -0.312075   
O307     O      0.581820000000     0.962150000000     0.730810000000    -0.300317   
O308     O      0.474050000000     0.012070000000     0.780470000000    -0.304458   
O309     O      0.546970000000     0.943730000000     0.696070000000    -0.310676   
O310     O      0.537740000000     0.013860000000     0.780640000000    -0.303057   
O311     O      0.587220000000     0.056050000000     0.737440000000    -0.303237   
O312     O      0.550030000000     0.102310000000     0.720830000000    -0.297794   
O313     O      0.753340000000     0.752470000000     0.669060000000    -0.374385   
O314     O      0.798640000000     0.836210000000     0.673340000000    -0.30131    
O315     O      0.820080000000     0.705900000000     0.637840000000    -0.310212   
O316     O      0.762290000000     0.718610000000     0.728590000000    -0.298604   
O317     O      0.834830000000     0.792240000000     0.653910000000    -0.3115     
O318     O      0.776130000000     0.781240000000     0.728550000000    -0.300441   
O319     O      0.806530000000     0.672820000000     0.674540000000    -0.299052   
O320     O      0.672610000000     0.707000000000     0.661150000000    -0.297897   
O321     O      0.774520000000     0.772540000000     0.609060000000    -0.31148    
O322     O      0.714780000000     0.671110000000     0.683470000000    -0.303637   
O323     O      0.712160000000     0.758910000000     0.609600000000    -0.295599   
O324     O      0.672060000000     0.799980000000     0.666070000000    -0.297401   
O325     O      0.711340000000     0.824550000000     0.696610000000    -0.304445   
O326     O      0.753400000000     0.769760000000     0.913090000000    -0.371677   
O327     O      0.832280000000     0.807240000000     0.888730000000    -0.3072     
O328     O      0.717630000000     0.846980000000     0.937540000000    -0.302428   
O329     O      0.704210000000     0.764930000000     0.856620000000    -0.294712   
O330     O      0.810600000000     0.846260000000     0.920370000000    -0.29934    
O331     O      0.765050000000     0.781750000000     0.849840000000    -0.309393   
O332     O      0.675130000000     0.821950000000     0.909130000000    -0.294575   
O333     O      0.715490000000     0.686840000000     0.929080000000    -0.298882   
O334     O      0.772630000000     0.799310000000     0.973490000000    -0.302164   
O335     O      0.669810000000     0.726810000000     0.915270000000    -0.294822   
O336     O      0.758300000000     0.737010000000     0.973350000000    -0.300562   
O337     O      0.810400000000     0.695330000000     0.922450000000    -0.298832   
O338     O      0.815100000000     0.717930000000     0.880910000000    -0.307196   
O339     O      0.772630000000     0.267050000000     0.527700000000    -0.380835   
O340     O      0.727460000000     0.340070000000     0.505560000000    -0.306127   
O341     O      0.694680000000     0.216900000000     0.535840000000    -0.296344   
O342     O      0.798140000000     0.230110000000     0.471270000000    -0.30092    
O343     O      0.691100000000     0.311910000000     0.536370000000    -0.297436   
O344     O      0.780420000000     0.291620000000     0.468210000000    -0.30521    
O345     O      0.734180000000     0.189850000000     0.506390000000    -0.302314   
O346     O      0.834520000000     0.224860000000     0.565260000000    -0.311316   
O347     O      0.738220000000     0.267090000000     0.587160000000    -0.300321   
O348     O      0.820260000000     0.185510000000     0.531790000000    -0.301217   
O349     O      0.792180000000     0.300760000000     0.583820000000    -0.312283   
O350     O      0.856310000000     0.305280000000     0.537990000000    -0.310988   
O351     O      0.819400000000     0.348690000000     0.518620000000    -0.300652   
O352     O      0.771410000000     0.265720000000     0.776880000000    -0.381241   
O353     O      0.822510000000     0.345790000000     0.780360000000    -0.302247   
O354     O      0.791620000000     0.233370000000     0.833710000000    -0.309711   
O355     O      0.694850000000     0.316450000000     0.785000000000    -0.300848   
O356     O      0.839510000000     0.303910000000     0.811560000000    -0.312467   
O357     O      0.735280000000     0.345390000000     0.757140000000    -0.304345   
O358     O      0.736620000000     0.265720000000     0.835670000000    -0.299443   
O359     O      0.725710000000     0.194110000000     0.753650000000    -0.309778   
O360     O      0.853050000000     0.222470000000     0.786170000000    -0.312522   
O361     O      0.687290000000     0.223010000000     0.782870000000    -0.297101   
O362     O      0.811730000000     0.180480000000     0.770450000000    -0.305819   
O363     O      0.786510000000     0.238510000000     0.717790000000    -0.305165   
O364     O      0.796830000000     0.301750000000     0.721260000000    -0.303424   
O365     O      0.508620000000     0.516970000000     0.481020000000    -0.371986   
O366     O      0.559820000000     0.452970000000     0.512550000000    -0.307504   
O367     O      0.540960000000     0.510190000000     0.922760000000    -0.303994   
O368     O      0.427590000000     0.464080000000     0.978140000000    -0.300536   
O369     O      0.589960000000     0.467860000000     0.974850000000    -0.301371   
O370     O      0.472510000000     0.431440000000     0.499290000000    -0.305756   
O371     O      0.478860000000     0.493880000000     0.922660000000    -0.300477   
O372     O      0.460600000000     0.598170000000     0.478450000000    -0.296863   
O373     O      0.589100000000     0.559680000000     0.964490000000    -0.302202   
O374     O      0.429360000000     0.551560000000     0.957330000000    -0.303788   
O375     O      0.552510000000     0.601960000000     0.485760000000    -0.29604    
O376     O      0.498350000000     0.562540000000     0.537340000000    -0.294917   
O377     O      0.490870000000     0.498830000000     0.539910000000    -0.311956   
O378     O      0.513970000000     0.502390000000     0.727020000000    -0.375716   
O379     O      0.429990000000     0.454890000000     0.725400000000    -0.302379   
O380     O      0.560920000000     0.426800000000     0.746180000000    -0.312452   
O381     O      0.537500000000     0.507350000000     0.666470000000    -0.301236   
O382     O      0.470960000000     0.429340000000     0.753960000000    -0.314757   
O383     O      0.480610000000     0.478720000000     0.669260000000    -0.302627   
O384     O      0.589790000000     0.449610000000     0.709870000000    -0.301007   
O385     O      0.558160000000     0.585000000000     0.732650000000    -0.300546   
O386     O      0.516750000000     0.482760000000     0.787880000000    -0.314716   
O387     O      0.594520000000     0.543400000000     0.710370000000    -0.303497   
O388     O      0.510800000000     0.546450000000     0.785270000000    -0.29762    
O389     O      0.466690000000     0.583780000000     0.728730000000    -0.29918    
O390     O      0.439370000000     0.541510000000     0.701470000000    -0.308188   
O391     O      0.006100000000     0.496870000000     0.607960000000    -0.376351   
O392     O      0.969520000000     0.412250000000     0.593720000000    -0.307422   
O393     O      0.971790000000     0.473660000000     0.665460000000    -0.301944   
O394     O      0.091050000000     0.455490000000     0.611540000000    -0.299739   
O395     O      0.923550000000     0.451300000000     0.607000000000    -0.30124    
O396     O      0.057170000000     0.433640000000     0.577150000000    -0.309752   
O397     O      0.035610000000     0.476550000000     0.666780000000    -0.303564   
O398     O      0.055480000000     0.577160000000     0.598870000000    -0.29323    
O399     O      0.932570000000     0.538220000000     0.632330000000    -0.30583    
O400     O      0.075100000000     0.544010000000     0.634520000000    -0.30046    
O401     O      0.960960000000     0.578810000000     0.604270000000    -0.296075   
O402     O      0.998900000000     0.535870000000     0.549040000000    -0.298828   
O403     O      0.986840000000     0.473020000000     0.548500000000    -0.311979   
O404     O      0.003010000000     0.503270000000     0.861580000000    -0.372744   
O405     O      0.076600000000     0.458720000000     0.838830000000    -0.302779   
O406     O      0.005130000000     0.456270000000     0.920060000000    -0.298323   
O407     O      0.054340000000     0.572110000000     0.886050000000    -0.309959   
O408     O      0.042320000000     0.417310000000     0.862900000000    -0.296246   
O409     O      0.083250000000     0.552480000000     0.848780000000    -0.302266   
O410     O      0.011820000000     0.519360000000     0.923690000000    -0.315748   
O411     O      0.931930000000     0.565130000000     0.849990000000    -0.3021     
O412     O      0.948130000000     0.428050000000     0.869400000000    -0.299552   
O413     O      0.958150000000     0.574400000000     0.890070000000    -0.306204   
O414     O      0.918940000000     0.473890000000     0.846030000000    -0.305439   
O415     O      0.969500000000     0.507740000000     0.800640000000    -0.304354   
O416     O      0.032970000000     0.508770000000     0.799820000000    -0.306286   
Zn1      Zn     0.011090000000     0.061590000000     0.123940000000     0.434884   
Zn2      Zn     0.962390000000     0.001580000000     0.087530000000     0.453965   
Zn3      Zn     0.056290000000     0.001300000000     0.086150000000     0.444915   
Zn4      Zn     0.009100000000     0.969430000000     0.133810000000     0.472453   
Zn5      Zn     0.055970000000     0.020150000000     0.376400000000     0.46095    
Zn6      Zn     0.964270000000     0.023890000000     0.371150000000     0.447642   
Zn7      Zn     0.021650000000     0.050020000000     0.325910000000     0.480193   
Zn8      Zn     0.011770000000     0.962710000000     0.335230000000     0.440608   
Zn9      Zn     0.225110000000     0.258820000000     0.031230000000     0.436837   
Zn10     Zn     0.275490000000     0.206180000000     0.069870000000     0.449333   
Zn11     Zn     0.319680000000     0.255530000000     0.029260000000     0.461974   
Zn12     Zn     0.279550000000     0.300860000000     0.073380000000     0.452324   
Zn13     Zn     0.229080000000     0.249840000000     0.334180000000     0.46336    
Zn14     Zn     0.256480000000     0.205510000000     0.285460000000     0.456116   
Zn15     Zn     0.250600000000     0.296460000000     0.283420000000     0.456749   
Zn16     Zn     0.316990000000     0.255460000000     0.318480000000     0.445658   
Zn17     Zn     0.300310000000     0.757840000000     0.191290000000     0.464322   
Zn18     Zn     0.211090000000     0.756850000000     0.183460000000     0.435444   
Zn19     Zn     0.269650000000     0.800870000000     0.142180000000     0.458998   
Zn20     Zn     0.267890000000     0.710410000000     0.142620000000     0.448003   
Zn21     Zn     0.301630000000     0.766880000000     0.399990000000     0.438851   
Zn22     Zn     0.212020000000     0.766410000000     0.388630000000     0.464481   
Zn23     Zn     0.240910000000     0.718740000000     0.436330000000     0.450494   
Zn24     Zn     0.242070000000     0.810930000000     0.438700000000     0.451586   
Zn25     Zn     0.459130000000     0.030500000000     0.454920000000     0.458654   
Zn26     Zn     0.505890000000     0.067310000000     0.998300000000     0.46281    
Zn27     Zn     0.506200000000     0.975040000000     0.994350000000     0.438888   
Zn28     Zn     0.551260000000     0.027710000000     0.452980000000     0.452267   
Zn29     Zn     0.504040000000     0.072350000000     0.206270000000     0.442484   
Zn30     Zn     0.460090000000     0.009300000000     0.241520000000     0.451051   
Zn31     Zn     0.506220000000     0.983040000000     0.192680000000     0.473096   
Zn32     Zn     0.552090000000     0.011050000000     0.241510000000     0.452183   
Zn33     Zn     0.761280000000     0.797770000000     0.191010000000     0.450457   
Zn34     Zn     0.794190000000     0.755480000000     0.143960000000     0.468505   
Zn35     Zn     0.760770000000     0.704860000000     0.188710000000     0.448917   
Zn36     Zn     0.703520000000     0.754810000000     0.150970000000     0.443035   
Zn37     Zn     0.789930000000     0.769150000000     0.384370000000     0.461594   
Zn38     Zn     0.764960000000     0.814600000000     0.434950000000     0.451314   
Zn39     Zn     0.701360000000     0.770850000000     0.398290000000     0.438675   
Zn40     Zn     0.760620000000     0.723010000000     0.433760000000     0.44668    
Zn41     Zn     0.776730000000     0.311700000000     0.005650000000     0.459947   
Zn42     Zn     0.724540000000     0.265480000000     0.047120000000     0.447501   
Zn43     Zn     0.783430000000     0.219280000000     0.009760000000     0.454763   
Zn44     Zn     0.813180000000     0.274170000000     0.052230000000     0.464465   
Zn45     Zn     0.783070000000     0.313710000000     0.259480000000     0.457767   
Zn46     Zn     0.812690000000     0.256610000000     0.300720000000     0.464911   
Zn47     Zn     0.722820000000     0.267330000000     0.295530000000     0.448273   
Zn48     Zn     0.775170000000     0.220620000000     0.255140000000     0.463248   
Zn49     Zn     0.508330000000     0.475820000000     0.006480000000     0.462874   
Zn50     Zn     0.556230000000     0.512260000000     0.461440000000     0.453225   
Zn51     Zn     0.462330000000     0.505130000000     0.460860000000     0.449809   
Zn52     Zn     0.505440000000     0.569160000000     0.996100000000     0.441287   
Zn53     Zn     0.467110000000     0.492450000000     0.207000000000     0.453613   
Zn54     Zn     0.516910000000     0.461400000000     0.252000000000     0.475903   
Zn55     Zn     0.558580000000     0.499060000000     0.203900000000     0.450556   
Zn56     Zn     0.511960000000     0.553270000000     0.243950000000     0.446143   
Zn57     Zn     0.005230000000     0.454650000000     0.083510000000     0.462697   
Zn58     Zn     0.959160000000     0.488440000000     0.127410000000     0.456337   
Zn59     Zn     0.051400000000     0.491570000000     0.129570000000     0.453405   
Zn60     Zn     0.006000000000     0.546360000000     0.089510000000     0.441276   
Zn61     Zn     0.047710000000     0.508210000000     0.338480000000     0.454269   
Zn62     Zn     0.999960000000     0.452050000000     0.378660000000     0.442833   
Zn63     Zn     0.006030000000     0.542170000000     0.388550000000     0.466635   
Zn64     Zn     0.957920000000     0.514610000000     0.340000000000     0.453001   
Zn65     Zn     0.011090000000     0.061590000000     0.623940000000     0.434893   
Zn66     Zn     0.962390000000     0.001580000000     0.587520000000     0.453977   
Zn67     Zn     0.056290000000     0.001300000000     0.586150000000     0.444893   
Zn68     Zn     0.009100000000     0.969430000000     0.633810000000     0.472448   
Zn69     Zn     0.055970000000     0.020150000000     0.876400000000     0.460939   
Zn70     Zn     0.964270000000     0.023890000000     0.871150000000     0.447614   
Zn71     Zn     0.021650000000     0.050020000000     0.825910000000     0.480227   
Zn72     Zn     0.011770000000     0.962710000000     0.835230000000     0.440578   
Zn73     Zn     0.225110000000     0.258820000000     0.531230000000     0.436729   
Zn74     Zn     0.275490000000     0.206180000000     0.569870000000     0.449319   
Zn75     Zn     0.319680000000     0.255530000000     0.529260000000     0.461876   
Zn76     Zn     0.279550000000     0.300860000000     0.573380000000     0.452328   
Zn77     Zn     0.229080000000     0.249840000000     0.834180000000     0.463359   
Zn78     Zn     0.256480000000     0.205510000000     0.785460000000     0.456116   
Zn79     Zn     0.250600000000     0.296460000000     0.783420000000     0.456749   
Zn80     Zn     0.316990000000     0.255460000000     0.818480000000     0.445655   
Zn81     Zn     0.300310000000     0.757840000000     0.691290000000     0.464329   
Zn82     Zn     0.211090000000     0.756850000000     0.683460000000     0.435441   
Zn83     Zn     0.269650000000     0.800870000000     0.642180000000     0.458986   
Zn84     Zn     0.267890000000     0.710410000000     0.642630000000     0.447994   
Zn85     Zn     0.301630000000     0.766880000000     0.899990000000     0.43886    
Zn86     Zn     0.212020000000     0.766410000000     0.888630000000     0.464432   
Zn87     Zn     0.240910000000     0.718740000000     0.936330000000     0.450474   
Zn88     Zn     0.242070000000     0.810930000000     0.938700000000     0.451564   
Zn89     Zn     0.459130000000     0.030500000000     0.954920000000     0.458674   
Zn90     Zn     0.505890000000     0.067310000000     0.498290000000     0.463021   
Zn91     Zn     0.506200000000     0.975040000000     0.494350000000     0.439042   
Zn92     Zn     0.551260000000     0.027710000000     0.952980000000     0.4523     
Zn93     Zn     0.504040000000     0.072350000000     0.706270000000     0.442498   
Zn94     Zn     0.460090000000     0.009300000000     0.741520000000     0.451083   
Zn95     Zn     0.506230000000     0.983040000000     0.692680000000     0.473097   
Zn96     Zn     0.552090000000     0.011050000000     0.741510000000     0.452174   
Zn97     Zn     0.761280000000     0.797770000000     0.691020000000     0.450522   
Zn98     Zn     0.794190000000     0.755490000000     0.643960000000     0.46849    
Zn99     Zn     0.760770000000     0.704860000000     0.688710000000     0.44893    
Zn100    Zn     0.703520000000     0.754810000000     0.650970000000     0.443038   
Zn101    Zn     0.789930000000     0.769150000000     0.884370000000     0.461589   
Zn102    Zn     0.764960000000     0.814600000000     0.934950000000     0.451285   
Zn103    Zn     0.701370000000     0.770860000000     0.898290000000     0.438673   
Zn104    Zn     0.760620000000     0.723010000000     0.933760000000     0.446661   
Zn105    Zn     0.776730000000     0.311700000000     0.505650000000     0.459865   
Zn106    Zn     0.724540000000     0.265480000000     0.547120000000     0.447478   
Zn107    Zn     0.783430000000     0.219280000000     0.509760000000     0.454671   
Zn108    Zn     0.813180000000     0.274180000000     0.552230000000     0.464443   
Zn109    Zn     0.783070000000     0.313710000000     0.759470000000     0.457775   
Zn110    Zn     0.812690000000     0.256600000000     0.800720000000     0.464923   
Zn111    Zn     0.722820000000     0.267330000000     0.795530000000     0.448273   
Zn112    Zn     0.775170000000     0.220620000000     0.755140000000     0.463237   
Zn113    Zn     0.508330000000     0.475820000000     0.506480000000     0.462713   
Zn114    Zn     0.556230000000     0.512260000000     0.961440000000     0.45316    
Zn115    Zn     0.462330000000     0.505130000000     0.960860000000     0.449785   
Zn116    Zn     0.505440000000     0.569160000000     0.496100000000     0.441382   
Zn117    Zn     0.467110000000     0.492450000000     0.707000000000     0.453611   
Zn118    Zn     0.516910000000     0.461400000000     0.752000000000     0.475921   
Zn119    Zn     0.558580000000     0.499060000000     0.703900000000     0.450567   
Zn120    Zn     0.511960000000     0.553260000000     0.743950000000     0.446165   
Zn121    Zn     0.005230000000     0.454650000000     0.583510000000     0.462666   
Zn122    Zn     0.959160000000     0.488440000000     0.627410000000     0.456316   
Zn123    Zn     0.051400000000     0.491570000000     0.629570000000     0.453411   
Zn124    Zn     0.006000000000     0.546350000000     0.589510000000     0.44131    
Zn125    Zn     0.047710000000     0.508210000000     0.838480000000     0.454262   
Zn126    Zn     0.999960000000     0.452050000000     0.878660000000     0.442865   
Zn127    Zn     0.006030000000     0.542170000000     0.888550000000     0.46657    
Zn128    Zn     0.957920000000     0.514610000000     0.840000000000     0.452963   


