data_structure

_audit_creation_method RASPA-1.0
_audit_creation_date 2023-5-19
_audit_author_name 'Poobodin Mano'

_cell_length_a    25.4138
_cell_length_b    25.3504
_cell_length_c    25.451
_cell_angle_alpha 90
_cell_angle_beta  90
_cell_angle_gamma 90
_cell_volume      16396.8

_symmetry_cell_setting          triclinic
_symmetry_space_group_name_Hall 'P 1'
_symmetry_space_group_name_H-M  'P 1'
_symmetry_Int_Tables_number     1

_symmetry_equiv_pos_as_xyz 'x,y,z'

loop_
_atom_site_label
_atom_site_type_symbol
_atom_site_fract_x
_atom_site_fract_y
_atom_site_fract_z
_atom_site_charge
C1       C      0.010560000000     0.998910000000     0.151350000000     0.370536   
C2       C      0.138680000000     0.984420000000     0.003160000000     0.365075   
C3       C      0.973780000000     0.853570000000     0.002110000000     0.369737   
C4       C      0.990240000000     0.992420000000     0.858370000000     0.333031   
C5       C      0.001070000000     0.142080000000     0.997250000000     0.366527   
C6       C      0.854190000000     0.012730000000     0.018160000000     0.378466   
C7       C      0.150470000000     0.032440000000     0.504020000000     0.368258   
C8       C      0.001910000000     0.028750000000     0.361970000000     0.366491   
C9       C      0.018880000000     0.874770000000     0.498440000000     0.366554   
C10      C      0.859990000000     0.999630000000     0.515200000000     0.363703   
C11      C      0.978980000000     0.163160000000     0.505600000000     0.366025   
C12      C      0.018460000000     0.023700000000     0.651250000000     0.366798   
C13      C      0.026650000000     0.355800000000     0.005660000000     0.363589   
C14      C      0.051210000000     0.500280000000     0.146160000000     0.324849   
C15      C      0.163210000000     0.522990000000     0.980490000000     0.325423   
C16      C      0.008300000000     0.645210000000     0.997450000000     0.364606   
C17      C      0.879450000000     0.507430000000     0.024690000000     0.362989   
C18      C      0.011680000000     0.489350000000     0.857090000000     0.367021   
C19      C      0.994980000000     0.376270000000     0.516870000000     0.365304   
C20      C      0.026810000000     0.511950000000     0.358240000000     0.363925   
C21      C      0.872530000000     0.537110000000     0.488820000000     0.328431   
C22      C      0.010340000000     0.661880000000     0.509220000000     0.365337   
C23      C      0.159680000000     0.509480000000     0.500220000000     0.360864   
C24      C      0.014400000000     0.525040000000     0.648330000000     0.364811   
C25      C      0.501520000000     0.854430000000     0.005210000000     0.365396   
C26      C      0.348160000000     0.998450000000     0.988930000000     0.370694   
C27      C      0.479440000000     0.984140000000     0.155180000000     0.37148    
C28      C      0.485920000000     0.144400000000     0.040370000000     0.372356   
C29      C      0.498040000000     0.017430000000     0.869790000000     0.363795   
C30      C      0.635240000000     0.013670000000     0.018900000000     0.382135   
C31      C      0.361390000000     0.018050000000     0.530870000000     0.365294   
C32      C      0.490840000000     0.983080000000     0.369570000000     0.36387    
C33      C      0.499500000000     0.153850000000     0.475320000000     0.36774    
C34      C      0.651310000000     0.025680000000     0.506950000000     0.367318   
C35      C      0.516470000000     0.869930000000     0.520100000000     0.367222   
C36      C      0.516270000000     0.030130000000     0.653770000000     0.368472   
C37      C      0.372830000000     0.500710000000     0.996590000000     0.371217   
C38      C      0.513790000000     0.492830000000     0.142260000000     0.364403   
C39      C      0.511470000000     0.347250000000     0.004300000000     0.367285   
C40      C      0.667390000000     0.492990000000     0.004370000000     0.361629   
C41      C      0.518400000000     0.639660000000     0.987650000000     0.367649   
C42      C      0.526330000000     0.479540000000     0.854340000000     0.364053   
C43      C      0.374900000000     0.504430000000     0.482910000000     0.365896   
C44      C      0.521210000000     0.359210000000     0.495500000000     0.368606   
C45      C      0.529180000000     0.513340000000     0.353430000000     0.365768   
C46      C      0.666230000000     0.503180000000     0.502060000000     0.366452   
C47      C      0.508840000000     0.500580000000     0.643730000000     0.36395    
C48      C      0.520980000000     0.650850000000     0.511520000000     0.364235   
C49      C      0.537260000000     0.536900000000     0.729680000000    -0.0125272  
C50      C      0.469730000000     0.464660000000     0.726020000000    -0.0100009  
C51      C      0.568090000000     0.505580000000     0.770720000000    -0.0159065  
C52      C      0.501480000000     0.434070000000     0.767530000000    -0.0199452  
C53      C      0.506030000000     0.554870000000     0.267880000000    -0.0127855  
C54      C      0.567280000000     0.477410000000     0.271210000000    -0.00943256 
C55      C      0.474600000000     0.527230000000     0.224370000000    -0.0163969  
C56      C      0.533170000000     0.448800000000     0.230720000000    -0.0196441  
C57      C      0.475490000000     0.734910000000     0.494020000000    -0.0117667  
C58      C      0.545570000000     0.730000000000     0.562890000000    -0.0103442  
C59      C      0.497580000000     0.787060000000     0.475250000000    -0.0147435  
C60      C      0.563780000000     0.786710000000     0.549240000000    -0.0196787  
C61      C      0.559410000000     0.274050000000     0.464750000000    -0.0139463  
C62      C      0.478880000000     0.275860000000     0.523200000000    -0.0104115  
C63      C      0.531890000000     0.233020000000     0.429390000000    -0.0147781  
C64      C      0.451370000000     0.240330000000     0.483510000000    -0.0155999  
C65      C      0.551440000000     0.772450000000     0.021940000000    -0.0119636  
C66      C      0.455640000000     0.769200000000     0.995270000000    -0.0112887  
C67      C      0.562600000000     0.725280000000     0.985910000000    -0.0131709  
C68      C      0.467120000000     0.719990000000     0.962040000000    -0.0178792  
C69      C      0.456590000000     0.266700000000     0.996920000000    -0.0141175  
C70      C      0.552390000000     0.260460000000     0.022620000000    -0.00683117 
C71      C      0.442230000000     0.229810000000     0.042760000000    -0.0131752  
C72      C      0.536890000000     0.224150000000     0.068000000000    -0.0191175  
C73      C      0.488330000000     0.977900000000     0.782070000000    -0.0099041  
C74      C      0.494080000000     0.076360000000     0.792150000000    -0.00895789 
C75      C      0.525550000000     0.980910000000     0.735510000000    -0.0168651  
C76      C      0.525520000000     0.079600000000     0.740290000000    -0.0193463  
C77      C      0.534820000000     0.961480000000     0.286070000000    -0.0099783  
C78      C      0.437330000000     0.953420000000     0.293640000000    -0.00803638 
C79      C      0.529290000000     0.992380000000     0.235490000000    -0.0152747  
C80      C      0.429770000000     0.981950000000     0.240400000000    -0.0203275  
C81      C      0.750870000000     0.516920000000     0.548400000000    -0.0127514  
C82      C      0.749390000000     0.490870000000     0.452770000000    -0.00667379 
C83      C      0.790480000000     0.560430000000     0.535670000000    -0.0134403  
C84      C      0.786770000000     0.536840000000     0.440490000000    -0.0248102  
C85      C      0.245880000000     0.553330000000     0.509480000000    -0.0131976  
C86      C      0.240030000000     0.454570000000     0.497560000000    -0.0101179  
C87      C      0.293260000000     0.554450000000     0.472400000000    -0.0130501  
C88      C      0.289970000000     0.456360000000     0.463560000000    -0.019304   
C89      C      0.751260000000     0.453160000000     0.036040000000    -0.0154941  
C90      C      0.751940000000     0.534070000000     0.977880000000    -0.0112439  
C91      C      0.797460000000     0.476620000000     0.067730000000    -0.0143393  
C92      C      0.793360000000     0.558000000000     0.014350000000    -0.0165235  
C93      C      0.286800000000     0.463780000000     0.969140000000    -0.0122713  
C94      C      0.291040000000     0.544500000000     0.027190000000    -0.00510495 
C95      C      0.244280000000     0.490800000000     0.936250000000    -0.0152995  
C96      C      0.249830000000     0.570800000000     0.991870000000    -0.0264023  
C97      C      0.061700000000     0.527680000000     0.733400000000    -0.01323    
C98      C      0.962740000000     0.527460000000     0.730800000000    -0.00823256 
C99      C      0.060130000000     0.482680000000     0.773840000000    -0.0146807  
C100     C      0.961910000000     0.482510000000     0.770860000000    -0.0193454  
C101     C      0.014450000000     0.460250000000     0.277010000000    -0.0130496  
C102     C      0.041390000000     0.556260000000     0.273090000000    -0.00391495 
C103     C      0.049990000000     0.448700000000     0.229540000000    -0.0151382  
C104     C      0.081980000000     0.541470000000     0.231100000000    -0.0284106  
C105     C      0.965920000000     0.745690000000     0.484640000000    -0.0124394  
C106     C      0.037480000000     0.745340000000     0.552360000000    -0.00963075 
C107     C      0.993730000000     0.790890000000     0.455900000000    -0.0156151  
C108     C      0.066200000000     0.788620000000     0.521720000000    -0.0195196  
C109     C      0.029120000000     0.288650000000     0.492350000000    -0.0124769  
C110     C      0.953560000000     0.295850000000     0.555940000000    -0.0103036  
C111     C      0.998790000000     0.247180000000     0.462080000000    -0.0145629  
C112     C      0.927380000000     0.247930000000     0.528430000000    -0.0201909  
C113     C      0.775960000000     0.980670000000     0.469580000000    -0.0133469  
C114     C      0.776430000000     0.002930000000     0.565750000000    -0.00705431 
C115     C      0.735340000000     0.024500000000     0.459740000000    -0.013985   
C116     C      0.735660000000     0.046230000000     0.555620000000    -0.0188661  
C117     C      0.274440000000     0.973920000000     0.531390000000    -0.0119061  
C118     C      0.281030000000     0.071010000000     0.548770000000    -0.0120361  
C119     C      0.232400000000     0.984240000000     0.490080000000    -0.0126588  
C120     C      0.237130000000     0.081820000000     0.507920000000    -0.0168613  
C121     C      0.006140000000     0.729360000000     0.046140000000    -0.0137428  
C122     C      0.998690000000     0.728080000000     0.946900000000    -0.00692534 
C123     C      0.961490000000     0.769910000000     0.048320000000    -0.0121427  
C124     C      0.955610000000     0.770130000000     0.950670000000    -0.0194529  
C125     C      0.046370000000     0.271410000000     0.960740000000    -0.0123826  
C126     C      0.015900000000     0.272590000000     0.055080000000    -0.00859049 
C127     C      0.008620000000     0.225490000000     0.949510000000    -0.013861   
C128     C      0.979110000000     0.226270000000     0.043490000000    -0.0194403  
C129     C      0.717820000000     0.980770000000     0.056170000000    -0.0106542  
C130     C      0.716770000000     0.062040000000     0.997150000000    -0.00527516 
C131     C      0.772970000000     0.000300000000     0.069340000000    -0.0106808  
C132     C      0.771220000000     0.043850000000     0.978740000000    -0.0161922  
C133     C      0.223810000000     0.015390000000     0.038470000000    -0.013964   
C134     C      0.221180000000     0.940150000000     0.974220000000    -0.011801   
C135     C      0.263850000000     0.043150000000     0.003880000000    -0.0111917  
C136     C      0.264410000000     0.967610000000     0.941620000000    -0.0187977  
C137     C      0.061350000000     0.995070000000     0.734610000000    -0.0125174  
C138     C      0.989990000000     0.062470000000     0.735780000000    -0.00595163 
C139     C      0.030740000000     0.961470000000     0.774630000000    -0.0174709  
C140     C      0.956960000000     0.027040000000     0.771190000000    -0.026583   
C141     C      0.985370000000     0.965560000000     0.239400000000    -0.0116288  
C142     C      0.056670000000     0.033210000000     0.230540000000    -0.00809682 
C143     C      0.958330000000     0.000340000000     0.280200000000    -0.0148966  
C144     C      0.029590000000     0.067320000000     0.272650000000    -0.0209079  
H1       H      0.596930000000     0.480080000000     0.749830000000     0.0537925  
H2       H      0.565180000000     0.560990000000     0.706170000000     0.0572472  
H3       H      0.530760000000     0.410360000000     0.745150000000     0.0561957  
H4       H      0.449630000000     0.436470000000     0.699250000000     0.0676252  
H5       H      0.590920000000     0.533610000000     0.795310000000     0.0589854  
H6       H      0.510650000000     0.564620000000     0.750700000000     0.0523537  
H7       H      0.439030000000     0.488310000000     0.746390000000     0.0602991  
H8       H      0.522900000000     0.334660000000     0.826480000000     0.159757   
H9       H      0.441510000000     0.505530000000     0.243120000000     0.0492848  
H10      H      0.478940000000     0.579800000000     0.291500000000     0.0540372  
H11      H      0.501170000000     0.429150000000     0.253300000000     0.0523556  
H12      H      0.586580000000     0.448300000000     0.297550000000     0.0656947  
H13      H      0.457020000000     0.557870000000     0.198580000000     0.0580539  
H14      H      0.535330000000     0.581320000000     0.248950000000     0.050511   
H15      H      0.598860000000     0.499170000000     0.250090000000     0.0589638  
H16      H      0.503570000000     0.347290000000     0.177270000000     0.149329   
H17      H      0.527650000000     0.778900000000     0.444530000000     0.048114   
H18      H      0.457730000000     0.714180000000     0.459850000000     0.0535725  
H19      H      0.599240000000     0.783200000000     0.523900000000     0.0497444  
H20      H      0.580590000000     0.706680000000     0.575050000000     0.0610976  
H21      H      0.465230000000     0.809310000000     0.455960000000     0.0548083  
H22      H      0.443620000000     0.742870000000     0.522910000000     0.0531431  
H23      H      0.518440000000     0.731640000000     0.597170000000     0.0597635  
H24      H      0.662130000000     0.841610000000     0.585650000000     0.152106   
H25      H      0.512690000000     0.254260000000     0.396310000000     0.052329   
H26      H      0.585450000000     0.299100000000     0.440120000000     0.0577767  
H27      H      0.436350000000     0.266780000000     0.451930000000     0.0612997  
H28      H      0.449410000000     0.301970000000     0.542310000000     0.0764425  
H29      H      0.561920000000     0.205960000000     0.412580000000     0.0549385  
H30      H      0.584900000000     0.252340000000     0.492920000000     0.052637   
H31      H      0.497180000000     0.250950000000     0.554200000000     0.0713882  
H32      H      0.365610000000     0.170400000000     0.439500000000     0.155391   
H33      H      0.573670000000     0.740300000000     0.946360000000     0.0554679  
H34      H      0.586510000000     0.798710000000     0.022150000000     0.0542897  
H35      H      0.475580000000     0.734230000000     0.921570000000     0.0566498  
H36      H      0.424180000000     0.792840000000     0.976060000000     0.0740714  
H37      H      0.596330000000     0.702310000000     0.001940000000     0.0504496  
H38      H      0.545180000000     0.757670000000     0.062600000000     0.0545739  
H39      H      0.440260000000     0.756380000000     0.034130000000     0.0670801  
H40      H      0.432510000000     0.636480000000     0.887690000000     0.155878   
H41      H      0.432780000000     0.254370000000     0.077720000000     0.04917    
H42      H      0.423690000000     0.294900000000     0.990630000000     0.057215   
H43      H      0.528580000000     0.250270000000     0.102160000000     0.0613241  
H44      H      0.587510000000     0.284130000000     0.033720000000     0.0669092  
H45      H      0.406730000000     0.206350000000     0.032190000000     0.0482383  
H46      H      0.460950000000     0.242500000000     0.960740000000     0.0586601  
H47      H      0.563320000000     0.235730000000     0.988220000000     0.0656406  
H48      H      0.551810000000     0.146980000000     0.154700000000     0.155152   
H49      H      0.566780000000     0.978320000000     0.749990000000     0.0669395  
H50      H      0.495060000000     0.939770000000     0.802640000000     0.0620561  
H51      H      0.567760000000     0.080900000000     0.751650000000     0.062474   
H52      H      0.508060000000     0.107620000000     0.819450000000     0.0649105  
H53      H      0.517860000000     0.945970000000     0.710160000000     0.0690068  
H54      H      0.447080000000     0.978470000000     0.767450000000     0.0592645  
H55      H      0.451990000000     0.084750000000     0.783540000000     0.0609677  
H56      H      0.587510000000     0.157750000000     0.673130000000     0.165115   
H57      H      0.530260000000     0.035150000000     0.245220000000     0.05281    
H58      H      0.571380000000     0.973830000000     0.306690000000     0.0503559  
H59      H      0.420060000000     0.023890000000     0.248780000000     0.0546263  
H60      H      0.403340000000     0.962600000000     0.319630000000     0.0601268  
H61      H      0.564250000000     0.984190000000     0.210480000000     0.0549695  
H62      H      0.538960000000     0.919000000000     0.275930000000     0.0487929  
H63      H      0.437950000000     0.910050000000     0.286820000000     0.0582422  
H64      H      0.328250000000     0.023630000000     0.195450000000     0.155033   
H65      H      0.768180000000     0.597600000000     0.529140000000     0.0491455  
H66      H      0.725850000000     0.529430000000     0.581990000000     0.0561764  
H67      H      0.762300000000     0.572260000000     0.432210000000     0.0568175  
H68      H      0.723070000000     0.484170000000     0.418500000000     0.0602942  
H69      H      0.817040000000     0.566880000000     0.569810000000     0.0545469  
H70      H      0.773260000000     0.481440000000     0.561040000000     0.0571897  
H71      H      0.772910000000     0.454480000000     0.459480000000     0.0607322  
H72      H      0.891000000000     0.586680000000     0.386940000000     0.150328   
H73      H      0.278910000000     0.560230000000     0.431510000000     0.0507724  
H74      H      0.223160000000     0.590490000000     0.504310000000     0.0537963  
H75      H      0.276260000000     0.460310000000     0.422230000000     0.0519066  
H76      H      0.213520000000     0.422910000000     0.482900000000     0.0640408  
H77      H      0.318640000000     0.588630000000     0.483000000000     0.0508469  
H78      H      0.260370000000     0.551850000000     0.550680000000     0.0551671  
H79      H      0.251420000000     0.443950000000     0.538390000000     0.0633079  
H80      H      0.367860000000     0.402900000000     0.394280000000     0.150997   
H81      H      0.780960000000     0.497250000000     0.102600000000     0.0538157  
H82      H      0.725880000000     0.430020000000     0.063120000000     0.0638504  
H83      H      0.771080000000     0.575220000000     0.047910000000     0.0532034  
H84      H      0.726630000000     0.566060000000     0.961930000000     0.0656369  
H85      H      0.822540000000     0.443800000000     0.082260000000     0.0583724  
H86      H      0.767850000000     0.425060000000     0.006870000000     0.0563442  
H87      H      0.772160000000     0.514590000000     0.944330000000     0.0688276  
H88      H      0.862480000000     0.645780000000     0.054470000000     0.151211   
H89      H      0.264000000000     0.511840000000     0.903330000000     0.0553755  
H90      H      0.310420000000     0.437600000000     0.943250000000     0.0606212  
H91      H      0.271420000000     0.590980000000     0.959550000000     0.0700273  
H92      H      0.318010000000     0.575230000000     0.042880000000     0.0727626  
H93      H      0.218180000000     0.460450000000     0.918560000000     0.0565525  
H94      H      0.267010000000     0.438420000000     0.998800000000     0.0504083  
H95      H      0.270770000000     0.525410000000     0.060940000000     0.0553352  
H96      H      0.134280000000     0.633120000000     0.984680000000     0.155566   
H97      H      0.062500000000     0.444490000000     0.752450000000     0.0515033  
H98      H      0.097550000000     0.523370000000     0.708700000000     0.0540749  
H99      H      0.963620000000     0.445370000000     0.747590000000     0.056517   
H100     H      0.928150000000     0.524450000000     0.704190000000     0.0630245  
H101     H      0.095370000000     0.485980000000     0.799570000000     0.0532371  
H102     H      0.064250000000     0.565790000000     0.754870000000     0.0546393  
H103     H      0.959480000000     0.565470000000     0.752380000000     0.0634964  
H104     H      0.910710000000     0.402180000000     0.838090000000     0.15519    
H105     H      0.087800000000     0.432770000000     0.244770000000     0.0498916  
H106     H      0.014160000000     0.425430000000     0.303590000000     0.055811   
H107     H      0.118190000000     0.528140000000     0.251820000000     0.0585759  
H108     H      0.057060000000     0.588950000000     0.297770000000     0.0550394  
H109     H      0.031850000000     0.417330000000     0.204980000000     0.0557183  
H110     H      0.973610000000     0.465430000000     0.262230000000     0.0570875  
H111     H      0.004550000000     0.569790000000     0.253730000000     0.0599771  
H112     H      0.147080000000     0.555600000000     0.126360000000     0.162865   
H113     H      0.019520000000     0.773500000000     0.425120000000     0.0497198  
H114     H      0.944270000000     0.721240000000     0.455560000000     0.0511558  
H115     H      0.090450000000     0.767930000000     0.491670000000     0.0529217  
H116     H      0.066400000000     0.720100000000     0.573350000000     0.0654514  
H117     H      0.963510000000     0.815100000000     0.435570000000     0.0534448  
H118     H      0.936450000000     0.763140000000     0.511870000000     0.049449   
H119     H      0.011830000000     0.764280000000     0.582330000000     0.0599549  
H120     H      0.164300000000     0.849900000000     0.501920000000     0.149582   
H121     H      0.971880000000     0.267450000000     0.434100000000     0.0522186  
H122     H      0.054540000000     0.310480000000     0.464280000000     0.0612001  
H123     H      0.900370000000     0.264830000000     0.498420000000     0.0523583  
H124     H      0.922590000000     0.323510000000     0.569860000000     0.0637074  
H125     H      0.026820000000     0.223710000000     0.438110000000     0.0687297  
H126     H      0.055330000000     0.268580000000     0.521100000000     0.0636947  
H127     H      0.975280000000     0.281440000000     0.591050000000     0.061606   
H128     H      0.827820000000     0.184750000000     0.519210000000     0.150406   
H129     H      0.756700000000     0.061380000000     0.449470000000     0.0504912  
H130     H      0.801070000000     0.976340000000     0.434070000000     0.0509836  
H131     H      0.758530000000     0.082600000000     0.546790000000     0.0622803  
H132     H      0.802140000000     0.014060000000     0.599330000000     0.0682092  
H133     H      0.710220000000     0.013160000000     0.425740000000     0.0492648  
H134     H      0.754490000000     0.942940000000     0.475750000000     0.0491022  
H135     H      0.755260000000     0.966130000000     0.576660000000     0.0622892  
H136     H      0.663080000000     0.133330000000     0.586100000000     0.156066   
H137     H      0.252310000000     0.988210000000     0.451360000000     0.054733   
H138     H      0.297010000000     0.937910000000     0.520720000000     0.056928   
H139     H      0.256750000000     0.090100000000     0.469740000000     0.0590441  
H140     H      0.308900000000     0.104810000000     0.549350000000     0.0797415  
H141     H      0.205710000000     0.949580000000     0.487430000000     0.059738   
H142     H      0.254390000000     0.966120000000     0.569450000000     0.0603965  
H143     H      0.262770000000     0.067910000000     0.588390000000     0.0643035  
H144     H      0.196410000000     0.176470000000     0.450120000000     0.162678   
H145     H      0.923400000000     0.748480000000     0.051380000000     0.0545254  
H146     H      0.003630000000     0.703780000000     0.081570000000     0.064003   
H147     H      0.917840000000     0.748150000000     0.954030000000     0.0650898  
H148     H      0.990670000000     0.701620000000     0.912980000000     0.0665408  
H149     H      0.966390000000     0.794660000000     0.084090000000     0.0530331  
H150     H      0.044380000000     0.750660000000     0.047290000000     0.0588254  
H151     H      0.036920000000     0.748060000000     0.939420000000     0.0625621  
H152     H      0.877650000000     0.847340000000     0.910590000000     0.159207   
H153     H      0.970660000000     0.241850000000     0.935120000000     0.0570901  
H154     H      0.049650000000     0.296200000000     0.924840000000     0.0533675  
H155     H      0.940690000000     0.243710000000     0.031730000000     0.0559301  
H156     H      0.998260000000     0.298180000000     0.085890000000     0.061604   
H157     H      0.025550000000     0.200070000000     0.918090000000     0.0527059  
H158     H      0.085930000000     0.254930000000     0.969670000000     0.0518292  
H159     H      0.053450000000     0.256750000000     0.071030000000     0.0599134  
H160     H      0.895790000000     0.150910000000     0.074610000000     0.155515   
H161     H      0.769790000000     0.034030000000     0.097090000000     0.0505515  
H162     H      0.696580000000     0.972710000000     0.093550000000     0.0528587  
H163     H      0.792830000000     0.079340000000     0.964750000000     0.0652599  
H164     H      0.721960000000     0.094840000000     0.025700000000     0.0595992  
H165     H      0.794350000000     0.968230000000     0.090110000000     0.0547027  
H166     H      0.720750000000     0.942690000000     0.034670000000     0.0622748  
H167     H      0.694490000000     0.078430000000     0.963250000000     0.0699469  
H168     H      0.807030000000     0.931810000000     0.893830000000     0.166539   
H169     H      0.242210000000     0.067110000000     0.974280000000     0.0487438  
H170     H      0.200060000000     0.045400000000     0.059670000000     0.0590307  
H171     H      0.243580000000     0.993010000000     0.912640000000     0.0517448  
H172     H      0.194800000000     0.917460000000     0.947710000000     0.0676517  
H173     H      0.287220000000     0.071150000000     0.028050000000     0.0565305  
H174     H      0.245340000000     0.991820000000     0.068420000000     0.0628813  
H175     H      0.240230000000     0.911770000000     0.001570000000     0.065973   
H176     H      0.322970000000     0.971800000000     0.840540000000     0.153355   
H177     H      0.008900000000     0.930620000000     0.752510000000     0.0628824  
H178     H      0.085310000000     0.968790000000     0.709130000000     0.0640019  
H179     H      0.933350000000     0.000630000000     0.745400000000     0.066437   
H180     H      0.963960000000     0.087790000000     0.711350000000     0.0710728  
H181     H      0.059250000000     0.940850000000     0.800560000000     0.0667503  
H182     H      0.088820000000     0.020980000000     0.756760000000     0.0534891  
H183     H      0.014580000000     0.088770000000     0.760750000000     0.0593984  
H184     H      0.879080000000     0.006840000000     0.869160000000     0.172423   
H185     H      0.930520000000     0.026960000000     0.259300000000     0.0515946  
H186     H      0.955060000000     0.942480000000     0.217900000000     0.0532787  
H187     H      0.001620000000     0.093380000000     0.251230000000     0.0606984  
H188     H      0.077740000000     0.058920000000     0.202110000000     0.069693   
H189     H      0.934320000000     0.974810000000     0.306330000000     0.0534459  
H190     H      0.011390000000     0.937210000000     0.260310000000     0.0512238  
H191     H      0.086510000000     0.007880000000     0.250190000000     0.0587419  
H192     H      0.023030000000     0.173710000000     0.321960000000     0.154339   
N1       N      0.531360000000     0.472120000000     0.800970000000    -0.149511   
N2       N      0.505120000000     0.500760000000     0.697440000000    -0.154982   
N3       N      0.508370000000     0.489070000000     0.195900000000    -0.150822   
N4       N      0.534190000000     0.515550000000     0.299930000000    -0.156436   
N5       N      0.522870000000     0.816080000000     0.518820000000    -0.14969    
N6       N      0.517140000000     0.704140000000     0.519590000000    -0.156151   
N7       N      0.491600000000     0.205080000000     0.460300000000    -0.152166   
N8       N      0.520550000000     0.305230000000     0.495170000000    -0.153505   
N9       N      0.514970000000     0.692890000000     0.981530000000    -0.15172    
N10      N      0.503710000000     0.800520000000     0.004470000000    -0.152667   
N11      N      0.487690000000     0.196100000000     0.054550000000    -0.153902   
N12      N      0.507040000000     0.293630000000     0.007840000000    -0.152339   
N13      N      0.517990000000     0.031360000000     0.707630000000    -0.145538   
N14      N      0.497010000000     0.023610000000     0.816420000000    -0.15284    
N15      N      0.479020000000     0.980640000000     0.208730000000    -0.149697   
N16      N      0.487430000000     0.968620000000     0.318040000000    -0.157063   
N17      N      0.819420000000     0.547150000000     0.487310000000    -0.1448     
N18      N      0.719960000000     0.503360000000     0.501260000000    -0.156202   
N19      N      0.321580000000     0.504000000000     0.475980000000    -0.151489   
N20      N      0.213410000000     0.506320000000     0.499150000000    -0.154344   
N21      N      0.826880000000     0.514840000000     0.035350000000    -0.149344   
N22      N      0.721360000000     0.494170000000     0.007190000000    -0.152478   
N23      N      0.215900000000     0.529450000000     0.969010000000    -0.143015   
N24      N      0.319080000000     0.503440000000     0.996880000000    -0.155039   
N25      N      0.010210000000     0.484910000000     0.803520000000    -0.15167    
N26      N      0.013120000000     0.526960000000     0.701950000000    -0.155232   
N27      N      0.061190000000     0.497140000000     0.199500000000    -0.141814   
N28      N      0.029930000000     0.509030000000     0.304760000000    -0.15548    
N29      N      0.026510000000     0.821320000000     0.493230000000    -0.15131    
N30      N      0.004390000000     0.715150000000     0.515550000000    -0.156477   
N31      N      0.967770000000     0.216010000000     0.499910000000    -0.148543   
N32      N      0.991560000000     0.322480000000     0.520930000000    -0.154644   
N33      N      0.704530000000     0.033090000000     0.508010000000    -0.152232   
N34      N      0.806600000000     0.993130000000     0.517220000000    -0.155008   
N35      N      0.204190000000     0.033750000000     0.501640000000    -0.148232   
N36      N      0.307950000000     0.020850000000     0.537010000000    -0.152347   
N37      N      0.962440000000     0.801010000000     0.999600000000    -0.151701   
N38      N      0.002930000000     0.698780000000     0.996890000000    -0.15193    
N39      N      0.999360000000     0.195700000000     0.998140000000    -0.151093   
N40      N      0.027800000000     0.301910000000     0.006460000000    -0.155347   
N41      N      0.800850000000     0.018200000000     0.021780000000    -0.150861   
N42      N      0.688470000000     0.018770000000     0.023530000000    -0.150744   
N43      N      0.295700000000     0.002770000000     0.976790000000    -0.151177   
N44      N      0.192180000000     0.979630000000     0.005500000000    -0.1546     
N45      N      0.992230000000     0.993930000000     0.804060000000    -0.140442   
N46      N      0.024600000000     0.028300000000     0.704460000000    -0.153744   
N47      N      0.998080000000     0.032610000000     0.308130000000    -0.150168   
N48      N      0.017570000000     0.998870000000     0.204670000000    -0.155746   
O1       O      0.995980000000     0.996620000000     0.005210000000    -0.373817   
O2       O      0.976800000000     0.968290000000     0.130490000000    -0.30011    
O3       O      0.116610000000     0.022560000000     0.027230000000    -0.302303   
O4       O      0.004210000000     0.874480000000     0.968200000000    -0.27942    
O5       O      0.037740000000     0.029710000000     0.122820000000    -0.291175   
O6       O      0.954440000000     0.880760000000     0.039530000000    -0.297604   
O7       O      0.111470000000     0.950720000000     0.977590000000    -0.295071   
O8       O      0.953230000000     0.015740000000     0.884020000000    -0.217558   
O9       O      0.027070000000     0.117740000000     0.032400000000    -0.28272    
O10      O      0.025940000000     0.967660000000     0.883450000000    -0.282337   
O11      O      0.975370000000     0.117190000000     0.962110000000    -0.289818   
O12      O      0.878740000000     0.035970000000     0.981220000000    -0.292241   
O13      O      0.878450000000     0.983150000000     0.050610000000    -0.297191   
O14      O      0.004680000000     0.019810000000     0.507010000000    -0.37294    
O15      O      0.128350000000     0.993500000000     0.526530000000    -0.286836   
O16      O      0.033190000000     0.057950000000     0.387890000000    -0.27658    
O17      O      0.986910000000     0.898570000000     0.467880000000    -0.300447   
O18      O      0.123100000000     0.068100000000     0.481670000000    -0.270176   
O19      O      0.044110000000     0.900720000000     0.532760000000    -0.281777   
O20      O      0.972690000000     0.995990000000     0.386170000000    -0.303312   
O21      O      0.883190000000     0.026540000000     0.550620000000    -0.288229   
O22      O      0.016500000000     0.143190000000     0.478950000000    -0.286656   
O23      O      0.885900000000     0.979890000000     0.477100000000    -0.300681   
O24      O      0.952020000000     0.133920000000     0.535880000000    -0.274645   
O25      O      0.982960000000     0.050700000000     0.628270000000    -0.291029   
O26      O      0.047790000000     0.992380000000     0.625180000000    -0.288459   
O27      O      0.021870000000     0.500760000000     0.002530000000    -0.375305   
O28      O      0.055070000000     0.380770000000     0.972650000000    -0.298716   
O29      O      0.016850000000     0.469480000000     0.126210000000    -0.287703   
O30      O      0.136470000000     0.559330000000     0.004220000000    -0.220896   
O31      O      0.997740000000     0.380520000000     0.038450000000    -0.297042   
O32      O      0.140890000000     0.480270000000     0.966240000000    -0.295467   
O33      O      0.074600000000     0.535010000000     0.117110000000    -0.217397   
O34      O      0.991030000000     0.617780000000     0.959150000000    -0.284623   
O35      O      0.906920000000     0.476430000000     0.053500000000    -0.289993   
O36      O      0.030700000000     0.623130000000     0.036420000000    -0.289606   
O37      O      0.900720000000     0.531810000000     0.986500000000    -0.272136   
O38      O      0.976440000000     0.515190000000     0.881630000000    -0.274381   
O39      O      0.050060000000     0.469040000000     0.881900000000    -0.302056   
O40      O      0.015090000000     0.518420000000     0.503410000000    -0.375326   
O41      O      0.963320000000     0.406380000000     0.542010000000    -0.291756   
O42      O      0.038750000000     0.471840000000     0.386050000000    -0.295773   
O43      O      0.901590000000     0.541770000000     0.447430000000    -0.220557   
O44      O      0.030690000000     0.395760000000     0.487730000000    -0.302963   
O45      O      0.892110000000     0.519270000000     0.531310000000    -0.290644   
O46      O      0.010990000000     0.554450000000     0.379820000000    -0.297663   
O47      O      0.043410000000     0.636960000000     0.537630000000    -0.298232   
O48      O      0.132070000000     0.473290000000     0.478780000000    -0.295615   
O49      O      0.982650000000     0.637610000000     0.475140000000    -0.303963   
O50      O      0.137740000000     0.548200000000     0.523630000000    -0.297011   
O51      O      0.054450000000     0.542360000000     0.623440000000    -0.294703   
O52      O      0.975050000000     0.506300000000     0.623720000000    -0.299015   
O53      O      0.491140000000     0.001260000000     0.012840000000    -0.373098   
O54      O      0.533260000000     0.880190000000     0.034250000000    -0.295836   
O55      O      0.378480000000     0.969670000000     0.961710000000    -0.279275   
O56      O      0.442940000000     0.008970000000     0.131320000000    -0.280787   
O57      O      0.467320000000     0.878460000000     0.977490000000    -0.286363   
O58      O      0.518640000000     0.965390000000     0.130140000000    -0.29681    
O59      O      0.366720000000     0.025280000000     0.026980000000    -0.296068   
O60      O      0.520140000000     0.126340000000     0.008750000000    -0.287179   
O61      O      0.481220000000     0.974370000000     0.889690000000    -0.290361   
O62      O      0.450100000000     0.114920000000     0.059340000000    -0.295956   
O63      O      0.514450000000     0.054920000000     0.899090000000    -0.292725   
O64      O      0.609670000000     0.043880000000     0.988120000000    -0.285749   
O65      O      0.611640000000     0.979150000000     0.046390000000    -0.302832   
O66      O      0.505990000000     0.014230000000     0.509940000000    -0.374715   
O67      O      0.390410000000     0.055210000000     0.548140000000    -0.280352   
O68      O      0.454320000000     0.970080000000     0.401350000000    -0.298306   
O69      O      0.526650000000     0.123000000000     0.446280000000    -0.294956   
O70      O      0.381640000000     0.978760000000     0.507030000000    -0.296688   
O71      O      0.479130000000     0.137350000000     0.517870000000    -0.278063   
O72      O      0.531310000000     0.008110000000     0.385560000000    -0.301102   
O73      O      0.628600000000     0.002210000000     0.544820000000    -0.277154   
O74      O      0.477050000000     0.890710000000     0.496950000000    -0.299763   
O75      O      0.625150000000     0.041050000000     0.467070000000    -0.298608   
O76      O      0.550570000000     0.899110000000     0.542210000000    -0.282837   
O77      O      0.536770000000     0.990950000000     0.630070000000    -0.284766   
O78      O      0.492320000000     0.065840000000     0.627830000000    -0.267663   
O79      O      0.519800000000     0.493670000000     0.998000000000    -0.368786   
O80      O      0.396160000000     0.468510000000     0.966100000000    -0.292011   
O81      O      0.487420000000     0.527450000000     0.117120000000    -0.298079   
O82      O      0.549150000000     0.370840000000     0.027550000000    -0.286593   
O83      O      0.399220000000     0.530090000000     0.027270000000    -0.289988   
O84      O      0.477480000000     0.373220000000     0.978260000000    -0.290214   
O85      O      0.543750000000     0.461320000000     0.117530000000    -0.280043   
O86      O      0.643360000000     0.524030000000     0.973050000000    -0.295165   
O87      O      0.487990000000     0.616760000000     0.020140000000    -0.281779   
O88      O      0.641440000000     0.460850000000     0.032870000000    -0.288945   
O89      O      0.551780000000     0.613700000000     0.960560000000    -0.29345    
O90      O      0.556860000000     0.511960000000     0.877860000000    -0.294472   
O91      O      0.491860000000     0.454280000000     0.880290000000    -0.276694   
O92      O      0.520050000000     0.505380000000     0.498570000000    -0.368777   
O93      O      0.402120000000     0.540180000000     0.460520000000    -0.298674   
O94      O      0.488380000000     0.384090000000     0.524060000000    -0.289193   
O95      O      0.553690000000     0.477740000000     0.378730000000    -0.300837   
O96      O      0.396560000000     0.470700000000     0.513000000000    -0.276956   
O97      O      0.500480000000     0.546810000000     0.377580000000    -0.298513   
O98      O      0.553790000000     0.384220000000     0.466730000000    -0.29637    
O99      O      0.641530000000     0.528640000000     0.537580000000    -0.299077   
O100     O      0.477310000000     0.472680000000     0.616250000000    -0.291687   
O101     O      0.641340000000     0.477910000000     0.466790000000    -0.300735   
O102     O      0.544030000000     0.528590000000     0.621630000000    -0.300477   
O103     O      0.552100000000     0.623380000000     0.539730000000    -0.298878   
O104     O      0.491560000000     0.628800000000     0.477460000000    -0.301998   
O105     O      0.439370000000     0.342820000000     0.755680000000    -0.157517   
O106     O      0.408480000000     0.414720000000     0.826820000000    -0.149101   
O107     O      0.494710000000     0.353140000000     0.846060000000    -0.249583   
O108     O      0.586980000000     0.353000000000     0.247300000000    -0.170103   
O109     O      0.623850000000     0.417960000000     0.172530000000    -0.148505   
O110     O      0.532390000000     0.363360000000     0.156550000000    -0.252022   
O111     O      0.607990000000     0.772940000000     0.651250000000    -0.171176   
O112     O      0.533450000000     0.846960000000     0.638730000000    -0.152141   
O113     O      0.631830000000     0.862450000000     0.598610000000    -0.243628   
O114     O      0.343920000000     0.251750000000     0.508150000000    -0.14375    
O115     O      0.402780000000     0.191190000000     0.571770000000    -0.131343   
O116     O      0.376900000000     0.155950000000     0.473840000000    -0.25883    
O117     O      0.362040000000     0.712640000000     0.926800000000    -0.15616    
O118     O      0.387730000000     0.663140000000     0.016660000000    -0.146096   
O119     O      0.421710000000     0.623960000000     0.922940000000    -0.260079   
O120     O      0.632170000000     0.216780000000     0.124170000000    -0.162999   
O121     O      0.622560000000     0.159610000000     0.035670000000    -0.155203   
O122     O      0.568400000000     0.130820000000     0.123380000000    -0.261978   
O123     O      0.521550000000     0.190370000000     0.751260000000    -0.165613   
O124     O      0.450040000000     0.144130000000     0.688660000000    -0.133883   
O125     O      0.552570000000     0.151080000000     0.657240000000    -0.245877   
O126     O      0.331180000000     0.929460000000     0.250720000000    -0.170879   
O127     O      0.393510000000     0.903280000000     0.169480000000    -0.151274   
O128     O      0.343120000000     0.998060000000     0.170040000000    -0.25125    
O129     O      0.802410000000     0.553710000000     0.331530000000    -0.174049   
O130     O      0.836140000000     0.460910000000     0.373690000000    -0.163941   
O131     O      0.882290000000     0.553030000000     0.402590000000    -0.216685   
O132     O      0.285840000000     0.347130000000     0.442880000000    -0.162479   
O133     O      0.339060000000     0.379360000000     0.528370000000    -0.137599   
O134     O      0.379870000000     0.396230000000     0.430700000000    -0.258346   
O135     O      0.783790000000     0.663590000000     0.981340000000    -0.172578   
O136     O      0.845550000000     0.599480000000     0.924340000000    -0.133327   
O137     O      0.877850000000     0.632810000000     0.021130000000    -0.256686   
O138     O      0.230660000000     0.679310000000     0.005930000000    -0.154161   
O139     O      0.217780000000     0.614890000000     0.090040000000    -0.163025   
O140     O      0.152350000000     0.606920000000     0.005590000000    -0.219067   
O141     O      0.853310000000     0.461530000000     0.764020000000    -0.165997   
O142     O      0.884790000000     0.539170000000     0.828710000000    -0.135459   
O143     O      0.902700000000     0.436380000000     0.855120000000    -0.253039   
O144     O      0.154100000000     0.624710000000     0.212170000000    -0.163781   
O145     O      0.051630000000     0.638680000000     0.183230000000    -0.164706   
O146     O      0.111120000000     0.563830000000     0.135490000000    -0.218816   
O147     O      0.156980000000     0.777620000000     0.584360000000    -0.169823   
O148     O      0.083680000000     0.847180000000     0.615630000000    -0.148027   
O149     O      0.145410000000     0.868810000000     0.530270000000    -0.252642   
O150     O      0.843270000000     0.256320000000     0.600240000000    -0.166748   
O151     O      0.920950000000     0.188130000000     0.622810000000    -0.143444   
O152     O      0.851170000000     0.165920000000     0.544080000000    -0.249868   
O153     O      0.737090000000     0.092230000000     0.656380000000    -0.153464   
O154     O      0.676850000000     0.006220000000     0.642030000000    -0.140088   
O155     O      0.647090000000     0.100360000000     0.599550000000    -0.255708   
O156     O      0.243600000000     0.185990000000     0.548120000000    -0.150559   
O157     O      0.159820000000     0.127130000000     0.574960000000    -0.151816   
O158     O      0.168740000000     0.165410000000     0.475210000000    -0.243864   
O159     O      0.923320000000     0.770710000000     0.844780000000    -0.161231   
O160     O      0.009410000000     0.826740000000     0.870410000000    -0.148902   
O161     O      0.912420000000     0.861550000000     0.900160000000    -0.256764   
O162     O      0.935540000000     0.226970000000     0.145480000000    -0.170557   
O163     O      0.022690000000     0.169030000000     0.129210000000    -0.148835   
O164     O      0.928590000000     0.136110000000     0.089600000000    -0.260443   
O165     O      0.775760000000     0.033780000000     0.868860000000    -0.156722   
O166     O      0.705700000000     0.973350000000     0.920600000000    -0.161312   
O167     O      0.809750000000     0.950850000000     0.927700000000    -0.267475   
O168     O      0.257200000000     0.886860000000     0.865760000000    -0.162836   
O169     O      0.329430000000     0.876200000000     0.942100000000    -0.141038   
O170     O      0.344010000000     0.948770000000     0.863930000000    -0.24841    
O171     O      0.853530000000     0.067260000000     0.780820000000    -0.148093   
O172     O      0.934130000000     0.124140000000     0.823230000000    -0.15951    
O173     O      0.909960000000     0.027950000000     0.862330000000    -0.220542   
O174     O      0.106040000000     0.146130000000     0.255390000000    -0.16447    
O175     O      0.123120000000     0.076880000000     0.333440000000    -0.149072   
O176     O      0.047640000000     0.153070000000     0.344040000000    -0.250081   
S1       S      0.460430000000     0.385900000000     0.799880000000     0.289526   
S2       S      0.569630000000     0.395420000000     0.200910000000     0.288289   
S3       S      0.584280000000     0.817750000000     0.610150000000     0.286427   
S4       S      0.393240000000     0.209090000000     0.509880000000     0.28817    
S5       S      0.409000000000     0.679210000000     0.957250000000     0.282926   
S6       S      0.590640000000     0.182100000000     0.087810000000     0.283681   
S7       S      0.512050000000     0.141880000000     0.708650000000     0.290234   
S8       S      0.373850000000     0.952720000000     0.207260000000     0.284757   
S9       S      0.826810000000     0.524670000000     0.384480000000     0.281128   
S10      S      0.324380000000     0.394110000000     0.466670000000     0.285294   
S11      S      0.825940000000     0.613870000000     0.984730000000     0.285266   
S12      S      0.212670000000     0.619620000000     0.025370000000     0.287155   
S13      S      0.900030000000     0.480080000000     0.805460000000     0.286006   
S14      S      0.099960000000     0.595460000000     0.190680000000     0.29003    
S15      S      0.113310000000     0.821430000000     0.563600000000     0.288      
S16      S      0.885500000000     0.213770000000     0.574490000000     0.289101   
S17      S      0.698430000000     0.061160000000     0.614100000000     0.285144   
S18      S      0.201710000000     0.140640000000     0.526930000000     0.285688   
S19      S      0.950400000000     0.808010000000     0.890860000000     0.287091   
S20      S      0.966560000000     0.188870000000     0.102620000000     0.282797   
S21      S      0.765270000000     0.999770000000     0.923410000000     0.289183   
S22      S      0.299610000000     0.919270000000     0.903190000000     0.288587   
S23      S      0.912030000000     0.064260000000     0.809320000000     0.293907   
S24      S      0.077200000000     0.111100000000     0.302190000000     0.290225   
Zn1      Zn     0.953180000000     0.958300000000     0.055630000000     0.464876   
Zn2      Zn     0.042700000000     0.041170000000     0.045130000000     0.469507   
Zn3      Zn     0.033860000000     0.948170000000     0.960000000000     0.461039   
Zn4      Zn     0.953900000000     0.040280000000     0.958900000000     0.462169   
Zn5      Zn     0.053910000000     0.977510000000     0.547280000000     0.470339   
Zn6      Zn     0.044510000000     0.070610000000     0.465710000000     0.470419   
Zn7      Zn     0.963520000000     0.974620000000     0.461100000000     0.456383   
Zn8      Zn     0.956910000000     0.056450000000     0.554310000000     0.467761   
Zn9      Zn     0.065970000000     0.458320000000     0.958080000000     0.45853    
Zn10     Zn     0.985590000000     0.457710000000     0.053840000000     0.453774   
Zn11     Zn     0.064560000000     0.551650000000     0.039870000000     0.445041   
Zn12     Zn     0.973950000000     0.539590000000     0.957600000000     0.471149   
Zn13     Zn     0.962310000000     0.487390000000     0.548470000000     0.457301   
Zn14     Zn     0.053530000000     0.466360000000     0.464630000000     0.460984   
Zn15     Zn     0.979060000000     0.561710000000     0.452450000000     0.44528    
Zn16     Zn     0.062380000000     0.560250000000     0.545710000000     0.457584   
Zn17     Zn     0.537250000000     0.957310000000     0.054250000000     0.467859   
Zn18     Zn     0.456220000000     0.956120000000     0.962390000000     0.468341   
Zn19     Zn     0.438660000000     0.035950000000     0.056550000000     0.465758   
Zn20     Zn     0.532170000000     0.055010000000     0.976990000000     0.465637   
Zn21     Zn     0.469160000000     0.066970000000     0.550920000000     0.476057   
Zn22     Zn     0.455280000000     0.965260000000     0.480530000000     0.457509   
Zn23     Zn     0.546790000000     0.045620000000     0.453530000000     0.45621    
Zn24     Zn     0.554130000000     0.977200000000     0.555180000000     0.476705   
Zn25     Zn     0.472430000000     0.449330000000     0.956740000000     0.468448   
Zn26     Zn     0.476110000000     0.540990000000     0.039970000000     0.465689   
Zn27     Zn     0.563150000000     0.448020000000     0.042070000000     0.463783   
Zn28     Zn     0.566770000000     0.535180000000     0.953560000000     0.454133   
Zn29     Zn     0.480050000000     0.554050000000     0.454470000000     0.454753   
Zn30     Zn     0.471630000000     0.460010000000     0.537410000000     0.463501   
Zn31     Zn     0.565330000000     0.462070000000     0.454410000000     0.461833   
Zn32     Zn     0.564040000000     0.544990000000     0.547470000000     0.455138   


