data_structure

_audit_creation_method RASPA-1.0
_audit_creation_date 2023-5-19
_audit_author_name 'Poobodin Mano'

_cell_length_a    25.5488
_cell_length_b    25.609
_cell_length_c    25.6922
_cell_angle_alpha 90
_cell_angle_beta  90
_cell_angle_gamma 90
_cell_volume      16809.9

_symmetry_cell_setting          triclinic
_symmetry_space_group_name_Hall 'P 1'
_symmetry_space_group_name_H-M  'P 1'
_symmetry_Int_Tables_number     1

_symmetry_equiv_pos_as_xyz 'x,y,z'

loop_
_atom_site_label
_atom_site_type_symbol
_atom_site_fract_x
_atom_site_fract_y
_atom_site_fract_z
_atom_site_charge
C1       C      0.005250000000     0.001000000000     0.149530000000     0.365776   
C2       C      0.860650000000     0.988030000000     0.006870000000     0.358915   
C3       C      0.984000000000     0.151700000000     0.014160000000     0.3667     
C4       C      0.993000000000     0.009120000000     0.860620000000     0.366765   
C5       C      0.032380000000     0.864020000000     0.006150000000     0.365164   
C6       C      0.143000000000     0.030990000000     0.996700000000     0.361673   
C7       C      0.000660000000     0.000960000000     0.364330000000     0.36596    
C8       C      0.155780000000     0.996520000000     0.502730000000     0.362169   
C9       C      0.012190000000     0.142550000000     0.505230000000     0.371362   
C10      C      0.017150000000     0.000450000000     0.649740000000     0.360534   
C11      C      0.010590000000     0.855710000000     0.504070000000     0.368732   
C12      C      0.865550000000     0.004240000000     0.521280000000     0.365252   
C13      C      0.140410000000     0.497350000000     0.996240000000     0.361543   
C14      C      0.998660000000     0.364840000000     0.015510000000     0.361241   
C15      C      0.996010000000     0.512570000000     0.155200000000     0.361946   
C16      C      0.856050000000     0.515410000000     0.017720000000     0.363466   
C17      C      0.978960000000     0.512920000000     0.867430000000     0.36668    
C18      C      0.015960000000     0.652510000000     0.015440000000     0.360269   
C19      C      0.003900000000     0.641230000000     0.513090000000     0.365788   
C20      C      0.995470000000     0.500760000000     0.655010000000     0.360895   
C21      C      0.851880000000     0.497060000000     0.514920000000     0.363145   
C22      C      0.009450000000     0.356480000000     0.515760000000     0.366084   
C23      C      0.144190000000     0.502850000000     0.503960000000     0.364621   
C24      C      0.987850000000     0.497040000000     0.368660000000     0.363056   
C25      C      0.497970000000     0.999680000000     0.149250000000     0.360651   
C26      C      0.355230000000     0.009830000000     0.002440000000     0.365248   
C27      C      0.502860000000     0.144340000000     0.004120000000     0.364164   
C28      C      0.512000000000     0.000980000000     0.863910000000     0.360742   
C29      C      0.483490000000     0.855250000000     0.001650000000     0.36339    
C30      C      0.644760000000     0.988140000000     0.017280000000     0.362247   
C31      C      0.367440000000     0.010690000000     0.489160000000     0.363972   
C32      C      0.520720000000     0.981930000000     0.358120000000     0.365011   
C33      C      0.517730000000     0.140770000000     0.500260000000     0.361294   
C34      C      0.656280000000     0.987020000000     0.499120000000     0.362871   
C35      C      0.493890000000     0.852010000000     0.515850000000     0.364247   
C36      C      0.513610000000     0.999460000000     0.645180000000     0.363201   
C37      C      0.647190000000     0.514100000000     0.981810000000     0.366592   
C38      C      0.489650000000     0.647730000000     0.964010000000     0.362617   
C39      C      0.507550000000     0.488550000000     0.836960000000     0.363788   
C40      C      0.356960000000     0.501880000000     0.985000000000     0.361641   
C41      C      0.509100000000     0.511440000000     0.121660000000     0.360856   
C42      C      0.501870000000     0.359660000000     0.984010000000     0.361105   
C43      C      0.360470000000     0.509000000000     0.487660000000     0.361965   
C44      C      0.494970000000     0.354080000000     0.483410000000     0.359528   
C45      C      0.501040000000     0.502170000000     0.336800000000     0.360703   
C46      C      0.649840000000     0.493160000000     0.468580000000     0.364498   
C47      C      0.513330000000     0.501830000000     0.625190000000     0.362177   
C48      C      0.508610000000     0.644120000000     0.487070000000     0.362421   
C49      C      0.558430000000     0.516450000000     0.709500000000    -0.0140933  
C50      C      0.460490000000     0.505700000000     0.705300000000    -0.0255274  
C51      C      0.559830000000     0.479950000000     0.757130000000    -0.0136207  
C52      C      0.462730000000     0.468240000000     0.751470000000     0.0282705  
C53      C      0.501860000000     0.455660000000     0.252660000000    -0.0138289  
C54      C      0.481180000000     0.551640000000     0.256820000000    -0.0248323  
C55      C      0.530800000000     0.464440000000     0.201330000000    -0.0136588  
C56      C      0.513100000000     0.560930000000     0.206730000000     0.0268137  
C57      C      0.547360000000     0.726580000000     0.520830000000    -0.015117   
C58      C      0.468760000000     0.728680000000     0.461330000000    -0.0266246  
C59      C      0.521130000000     0.768070000000     0.555280000000    -0.0147527  
C60      C      0.442780000000     0.767340000000     0.498880000000     0.0268147  
C61      C      0.461090000000     0.270000000000     0.519190000000    -0.0143789  
C62      C      0.519430000000     0.270550000000     0.441030000000    -0.0256837  
C63      C      0.493380000000     0.224660000000     0.541940000000    -0.0161268  
C64      C      0.553830000000     0.228160000000     0.465820000000     0.0252751  
C65      C      0.535100000000     0.732360000000     0.963960000000    -0.0114277  
C66      C      0.437950000000     0.728810000000     0.950330000000    -0.0245905  
C67      C      0.528050000000     0.771530000000     0.007660000000    -0.0129849  
C68      C      0.430510000000     0.771490000000     0.992870000000     0.0261533  
C69      C      0.451040000000     0.277520000000     0.984530000000    -0.0131447  
C70      C      0.547910000000     0.276690000000     0.967820000000    -0.0245147  
C71      C      0.456070000000     0.226370000000     0.015020000000    -0.0141708  
C72      C      0.554080000000     0.228210000000     0.002650000000     0.0270166  
C73      C      0.491400000000     0.045660000000     0.781360000000    -0.0148335  
C74      C      0.543110000000     0.960470000000     0.782510000000    -0.0251972  
C75      C      0.473490000000     0.027810000000     0.727520000000    -0.0121028  
C76      C      0.559360000000     0.976460000000     0.726970000000     0.0277012  
C77      C      0.527880000000     0.037680000000     0.233170000000    -0.0147699  
C78      C      0.466200000000     0.961040000000     0.232110000000    -0.0263186  
C79      C      0.560600000000     0.010160000000     0.275000000000    -0.0150805  
C80      C      0.501210000000     0.933730000000     0.272340000000     0.025996   
C81      C      0.767740000000     0.448650000000     0.518200000000    -0.0150158  
C82      C      0.769100000000     0.546190000000     0.506020000000    -0.0253689  
C83      C      0.731860000000     0.443460000000     0.470050000000    -0.0140628  
C84      C      0.735950000000     0.540060000000     0.456930000000     0.0295397  
C85      C      0.283130000000     0.514250000000     0.544700000000    -0.0131106  
C86      C      0.276330000000     0.538220000000     0.450660000000    -0.0243044  
C87      C      0.229350000000     0.488370000000     0.542770000000    -0.0145316  
C88      C      0.223180000000     0.510060000000     0.446540000000     0.0274828  
C89      C      0.733510000000     0.472010000000     0.971470000000    -0.0137229  
C90      C      0.727200000000     0.568410000000     0.989560000000    -0.0246313  
C91      C      0.773810000000     0.466550000000     0.015080000000    -0.0138185  
C92      C      0.769440000000     0.562700000000     0.031630000000     0.0269579  
C93      C      0.277060000000     0.506680000000     0.038800000000    -0.0140318  
C94      C      0.272660000000     0.519570000000     0.941860000000    -0.0249923  
C95      C      0.224390000000     0.478510000000     0.037080000000    -0.0139383  
C96      C      0.220900000000     0.488840000000     0.939710000000     0.0267811  
C97      C      0.985810000000     0.455550000000     0.739160000000    -0.0142953  
C98      C      0.011130000000     0.550790000000     0.735420000000    -0.0252138  
C99      C      0.953740000000     0.466480000000     0.788210000000    -0.0119755  
C100     C      0.975130000000     0.562030000000     0.782180000000     0.0279715  
C101     C      0.038670000000     0.525540000000     0.240400000000    -0.0135715  
C102     C      0.940600000000     0.523400000000     0.233580000000    -0.0250333  
C103     C      0.036040000000     0.488900000000     0.287200000000    -0.0132115  
C104     C      0.937780000000     0.490670000000     0.283890000000     0.026498   
C105     C      0.956170000000     0.724330000000     0.517330000000    -0.0130594  
C106     C      0.053540000000     0.721160000000     0.531790000000    -0.0240789  
C107     C      0.962140000000     0.776020000000     0.488690000000    -0.0129225  
C108     C      0.060290000000     0.771400000000     0.499880000000     0.0277494  
C109     C      0.064100000000     0.276760000000     0.512340000000    -0.0131445  
C110     C      0.972110000000     0.273670000000     0.546490000000    -0.0245547  
C111     C      0.055510000000     0.224310000000     0.485140000000    -0.0133432  
C112     C      0.960680000000     0.224820000000     0.514270000000     0.0284303  
C113     C      0.740260000000     0.945460000000     0.526150000000    -0.0148289  
C114     C      0.740060000000     0.024180000000     0.467580000000    -0.0261253  
C115     C      0.783010000000     0.971260000000     0.559730000000    -0.0152049  
C116     C      0.778370000000     0.050810000000     0.504820000000     0.0265444  
C117     C      0.240880000000     0.020250000000     0.543140000000    -0.0151202  
C118     C      0.238130000000     0.963480000000     0.463180000000    -0.0263352  
C119     C      0.285150000000     0.052210000000     0.518500000000    -0.0146636  
C120     C      0.281180000000     0.997580000000     0.438990000000     0.0262905  
C121     C      0.007860000000     0.735310000000     0.967800000000    -0.0142256  
C122     C      0.030820000000     0.734200000000     0.063940000000    -0.0266951  
C123     C      0.044920000000     0.781560000000     0.960110000000    -0.0116436  
C124     C      0.063440000000     0.784100000000     0.055440000000     0.0292061  
C125     C      0.011620000000     0.280640000000     0.970580000000    -0.014241   
C126     C      0.001210000000     0.283700000000     0.068130000000    -0.0260379  
C127     C      0.973630000000     0.234560000000     0.968150000000    -0.0123842  
C128     C      0.966440000000     0.234660000000     0.065320000000     0.0280122  
C129     C      0.728790000000     0.026650000000     0.044810000000    -0.0136886  
C130     C      0.724220000000     0.932430000000     0.018670000000    -0.0251457  
C131     C      0.777600000000     0.033680000000     0.011570000000    -0.0131718  
C132     C      0.777590000000     0.937670000000     0.990710000000     0.0255807  
C133     C      0.225310000000     0.034970000000     0.945610000000    -0.0124304  
C134     C      0.224430000000     0.060920000000     0.039250000000    -0.024933   
C135     C      0.273610000000     0.001080000000     0.954770000000    -0.0141807  
C136     C      0.271040000000     0.024630000000     0.050830000000     0.0270505  
C137     C      0.018660000000     0.954040000000     0.734070000000    -0.0136612  
C138     C      0.027510000000     0.051860000000     0.730390000000    -0.0251411  
C139     C      0.981690000000     0.959230000000     0.780480000000    -0.0119335  
C140     C      0.987500000000     0.057290000000     0.774980000000     0.0277704  
C141     C      0.007670000000     0.949780000000     0.230580000000    -0.013874   
C142     C      0.025630000000     0.046540000000     0.231010000000    -0.0247188  
C143     C      0.981790000000     0.954730000000     0.284050000000    -0.012948   
C144     C      0.994420000000     0.052430000000     0.281630000000     0.0282462  
H1       H      0.452700000000     0.545860000000     0.720020000000     0.05141    
H2       H      0.557180000000     0.557510000000     0.723510000000     0.0466929  
H3       H      0.592590000000     0.492050000000     0.783020000000     0.0462136  
H4       H      0.427520000000     0.495020000000     0.679000000000     0.0532564  
H5       H      0.468820000000     0.428520000000     0.734980000000     0.039025   
H6       H      0.594900000000     0.511060000000     0.686460000000     0.0466722  
H7       H      0.567750000000     0.439530000000     0.743400000000     0.0460537  
H8       H      0.439010000000     0.546800000000     0.246860000000     0.0515768  
H9       H      0.461380000000     0.442670000000     0.243420000000     0.0463912  
H10      H      0.526280000000     0.429160000000     0.176430000000     0.0472078  
H11      H      0.484880000000     0.586510000000     0.282520000000     0.0530699  
H12      H      0.554030000000     0.570120000000     0.218260000000     0.0401789  
H13      H      0.521180000000     0.423380000000     0.274300000000     0.0492167  
H14      H      0.573210000000     0.468300000000     0.210280000000     0.0447325  
H15      H      0.489100000000     0.750890000000     0.430050000000     0.0527001  
H16      H      0.574270000000     0.746880000000     0.493490000000     0.0469444  
H17      H      0.552010000000     0.791690000000     0.574570000000     0.0503614  
H18      H      0.438380000000     0.703810000000     0.442630000000     0.0552597  
H19      H      0.423750000000     0.743350000000     0.529670000000     0.0374644  
H20      H      0.571510000000     0.700620000000     0.545810000000     0.0505346  
H21      H      0.499010000000     0.747580000000     0.586480000000     0.0442278  
H22      H      0.489220000000     0.251420000000     0.416240000000     0.0496664  
H23      H      0.426940000000     0.253160000000     0.498260000000     0.0456383  
H24      H      0.466950000000     0.200200000000     0.566090000000     0.0507778  
H25      H      0.543510000000     0.295810000000     0.415150000000     0.0551233  
H26      H      0.583190000000     0.248680000000     0.490430000000     0.0389636  
H27      H      0.445880000000     0.294380000000     0.551630000000     0.0490776  
H28      H      0.523120000000     0.241620000000     0.568650000000     0.0447248  
H29      H      0.439810000000     0.747630000000     0.911290000000     0.0499934  
H30      H      0.541470000000     0.754360000000     0.927170000000     0.0473188  
H31      H      0.563650000000     0.796420000000     0.010600000000     0.0472847  
H32      H      0.403980000000     0.701540000000     0.950710000000     0.0504537  
H33      H      0.422040000000     0.751110000000     0.030140000000     0.0397612  
H34      H      0.570650000000     0.708360000000     0.971230000000     0.0478486  
H35      H      0.524540000000     0.749570000000     0.044860000000     0.0483563  
H36      H      0.543640000000     0.264410000000     0.926420000000     0.0517559  
H37      H      0.439330000000     0.267720000000     0.944000000000     0.0455678  
H38      H      0.420520000000     0.202190000000     0.008170000000     0.0466927  
H39      H      0.583840000000     0.301170000000     0.970980000000     0.0526692  
H40      H      0.561960000000     0.241690000000     0.043050000000     0.0403705  
H41      H      0.418980000000     0.301330000000     0.001650000000     0.0484972  
H42      H      0.456700000000     0.236180000000     0.057180000000     0.0446704  
H43      H      0.577680000000     0.945990000000     0.804670000000     0.0531927  
H44      H      0.520210000000     0.077870000000     0.776920000000     0.0481036  
H45      H      0.458390000000     0.062370000000     0.706020000000     0.0486853  
H46      H      0.515860000000     0.926740000000     0.779580000000     0.0488355  
H47      H      0.572140000000     0.940340000000     0.706570000000     0.0416753  
H48      H      0.456960000000     0.062160000000     0.802090000000     0.0505208  
H49      H      0.440330000000     0.000060000000     0.731990000000     0.0462701  
H50      H      0.434470000000     0.982380000000     0.252860000000     0.0520892  
H51      H      0.499990000000     0.064420000000     0.253000000000     0.0468658  
H52      H      0.580410000000     0.040230000000     0.299140000000     0.0511857  
H53      H      0.447480000000     0.931480000000     0.206380000000     0.055931   
H54      H      0.532160000000     0.913100000000     0.249820000000     0.038147   
H55      H      0.554230000000     0.061970000000     0.208720000000     0.0507456  
H56      H      0.591770000000     0.987300000000     0.255120000000     0.0450848  
H57      H      0.742640000000     0.552850000000     0.539810000000     0.0536888  
H58      H      0.742630000000     0.450150000000     0.553510000000     0.0464562  
H59      H      0.705170000000     0.409550000000     0.475510000000     0.0454014  
H60      H      0.795370000000     0.580740000000     0.502780000000     0.0533356  
H61      H      0.763760000000     0.533660000000     0.424200000000     0.0410156  
H62      H      0.793190000000     0.413530000000     0.520940000000     0.0477281  
H63      H      0.756840000000     0.435770000000     0.435440000000     0.0458155  
H64      H      0.270040000000     0.580420000000     0.459270000000     0.0503596  
H65      H      0.277860000000     0.555020000000     0.558700000000     0.0443627  
H66      H      0.209260000000     0.494870000000     0.580670000000     0.0477641  
H67      H      0.297160000000     0.535250000000     0.412660000000     0.0520164  
H68      H      0.230430000000     0.469780000000     0.432060000000     0.0413478  
H69      H      0.307780000000     0.493650000000     0.573880000000     0.0484464  
H70      H      0.235270000000     0.445530000000     0.538780000000     0.0451915  
H71      H      0.746270000000     0.579710000000     0.952250000000     0.0508791  
H72      H      0.754600000000     0.477570000000     0.934010000000     0.0465984  
H73      H      0.799850000000     0.432980000000     0.005800000000     0.0478221  
H74      H      0.699380000000     0.600120000000     0.000210000000     0.0529462  
H75      H      0.748300000000     0.555240000000     0.068750000000     0.0388538  
H76      H      0.710570000000     0.435190000000     0.968930000000     0.0489337  
H77      H      0.752910000000     0.457740000000     0.052030000000     0.0462735  
H78      H      0.264270000000     0.562220000000     0.944190000000     0.0515048  
H79      H      0.269770000000     0.548210000000     0.049160000000     0.046468   
H80      H      0.203000000000     0.486220000000     0.074010000000     0.0479247  
H81      H      0.294890000000     0.512360000000     0.905240000000     0.0537301  
H82      H      0.230450000000     0.447120000000     0.932400000000     0.0401107  
H83      H      0.301330000000     0.489450000000     0.070350000000     0.0494562  
H84      H      0.232260000000     0.435820000000     0.035660000000     0.0444755  
H85      H      0.051970000000     0.544550000000     0.749300000000     0.0527301  
H86      H      0.024720000000     0.440500000000     0.751430000000     0.0472826  
H87      H      0.954950000000     0.431680000000     0.814150000000     0.0452067  
H88      H      0.011110000000     0.585180000000     0.708820000000     0.0520589  
H89      H      0.935510000000     0.571210000000     0.766760000000     0.039143   
H90      H      0.966430000000     0.424110000000     0.716360000000     0.0488093  
H91      H      0.912300000000     0.472110000000     0.776220000000     0.0438773  
H92      H      0.935340000000     0.565400000000     0.243580000000     0.0499272  
H93      H      0.039670000000     0.566540000000     0.254630000000     0.0475294  
H94      H      0.070710000000     0.496480000000     0.312370000000     0.0477138  
H95      H      0.907880000000     0.512370000000     0.207150000000     0.0532488  
H96      H      0.935400000000     0.449110000000     0.271550000000     0.038479   
H97      H      0.075500000000     0.517710000000     0.218660000000     0.0481295  
H98      H      0.038270000000     0.447870000000     0.273170000000     0.0480902  
H99      H      0.050700000000     0.730850000000     0.573990000000     0.0516222  
H100     H      0.946120000000     0.732960000000     0.558560000000     0.0454661  
H101     H      0.927150000000     0.800740000000     0.496450000000     0.0455924  
H102     H      0.088470000000     0.695710000000     0.526040000000     0.0522308  
H103     H      0.067380000000     0.760260000000     0.458640000000     0.0407692  
H104     H      0.922770000000     0.702310000000     0.500320000000     0.0486633  
H105     H      0.962720000000     0.767710000000     0.446200000000     0.0448103  
H106     H      0.985310000000     0.262190000000     0.586230000000     0.0508309  
H107     H      0.082910000000     0.268990000000     0.550590000000     0.0447506  
H108     H      0.092170000000     0.200910000000     0.487340000000     0.0455299  
H109     H      0.935380000000     0.296790000000     0.550550000000     0.0539681  
H110     H      0.945380000000     0.237240000000     0.475680000000     0.0416962  
H111     H      0.091820000000     0.300720000000     0.489060000000     0.0487548  
H112     H      0.047940000000     0.232190000000     0.443240000000     0.0449823  
H113     H      0.762620000000     0.003770000000     0.436580000000     0.0520961  
H114     H      0.759870000000     0.919440000000     0.497520000000     0.0449441  
H115     H      0.808330000000     0.940160000000     0.576340000000     0.0500202  
H116     H      0.714660000000     0.053800000000     0.448420000000     0.0556387  
H117     H      0.754220000000     0.068420000000     0.536340000000     0.0388436  
H118     H      0.715290000000     0.920570000000     0.551420000000     0.049825   
H119     H      0.763570000000     0.991560000000     0.592760000000     0.0456442  
H120     H      0.256610000000     0.929380000000     0.482810000000     0.0520453  
H121     H      0.258760000000     0.989890000000     0.568470000000     0.0468102  
H122     H      0.309750000000     0.068750000000     0.550120000000     0.0502879  
H123     H      0.211870000000     0.948260000000     0.432120000000     0.0557131  
H124     H      0.260770000000     0.030740000000     0.419680000000     0.0377654  
H125     H      0.217200000000     0.046360000000     0.568420000000     0.0506342  
H126     H      0.267340000000     0.085620000000     0.497230000000     0.044466   
H127     H      0.991690000000     0.745070000000     0.079650000000     0.052516   
H128     H      0.967250000000     0.750320000000     0.972300000000     0.0509699  
H129     H      0.031620000000     0.804880000000     0.926000000000     0.0445707  
H130     H      0.050160000000     0.709060000000     0.093620000000     0.0528983  
H131     H      0.104300000000     0.770880000000     0.048350000000     0.0374223  
H132     H      0.009130000000     0.710440000000     0.932290000000     0.0479663  
H133     H      0.084870000000     0.766370000000     0.951890000000     0.0459309  
H134     H      0.042150000000     0.271660000000     0.076900000000     0.0507304  
H135     H      0.052300000000     0.265240000000     0.971880000000     0.0480227  
H136     H      0.983220000000     0.210400000000     0.933400000000     0.0466363  
H137     H      0.987940000000     0.309340000000     0.100540000000     0.0531836  
H138     H      0.925370000000     0.248890000000     0.063070000000     0.0377446  
H139     H      0.007140000000     0.304120000000     0.934430000000     0.0487036  
H140     H      0.933150000000     0.249890000000     0.963520000000     0.046518   
H141     H      0.730640000000     0.916920000000     0.058680000000     0.0490498  
H142     H      0.740890000000     0.017390000000     0.085360000000     0.0473176  
H143     H      0.801490000000     0.065810000000     0.028600000000     0.0462842  
H144     H      0.699450000000     0.903510000000     0.997700000000     0.0527399  
H145     H      0.768930000000     0.943430000000     0.948680000000     0.0382638  
H146     H      0.706770000000     0.064110000000     0.045260000000     0.0495079  
H147     H      0.765650000000     0.045550000000     0.971640000000     0.049962   
H148     H      0.239120000000     0.100760000000     0.029680000000     0.049589   
H149     H      0.238840000000     0.074150000000     0.932660000000     0.0447695  
H150     H      0.298980000000     0.002640000000     0.919580000000     0.0476935  
H151     H      0.199290000000     0.064020000000     0.074520000000     0.054201   
H152     H      0.255310000000     0.986370000000     0.064030000000     0.0423708  
H153     H      0.201510000000     0.018010000000     0.913570000000     0.048815   
H154     H      0.260370000000     0.959940000000     0.959090000000     0.0472168  
H155     H      0.067910000000     0.051750000000     0.746710000000     0.051334   
H156     H      0.058790000000     0.947250000000     0.749390000000     0.0471005  
H157     H      0.986930000000     0.925120000000     0.806830000000     0.045351   
H158     H      0.023860000000     0.085920000000     0.703640000000     0.0526235  
H159     H      0.947920000000     0.060430000000     0.757250000000     0.0400842  
H160     H      0.007580000000     0.919130000000     0.710810000000     0.0489026  
H161     H      0.940890000000     0.957770000000     0.765470000000     0.0453205  
H162     H      0.068070000000     0.042090000000     0.240040000000     0.0525347  
H163     H      0.048830000000     0.936970000000     0.236530000000     0.0463006  
H164     H      0.990550000000     0.919130000000     0.307340000000     0.0460846  
H165     H      0.020640000000     0.082540000000     0.207090000000     0.0533661  
H166     H      0.952820000000     0.060040000000     0.271360000000     0.04105    
H167     H      0.987620000000     0.918600000000     0.207990000000     0.0497846  
H168     H      0.938680000000     0.955810000000     0.278120000000     0.044629   
N1       N      0.508950000000     0.481070000000     0.784240000000    -0.159643   
N2       N      0.511350000000     0.506040000000     0.678140000000    -0.15548    
N3       N      0.513390000000     0.512500000000     0.174810000000    -0.158505   
N4       N      0.498760000000     0.503940000000     0.283600000000    -0.154709   
N5       N      0.484480000000     0.799550000000     0.523740000000    -0.159011   
N6       N      0.507960000000     0.697570000000     0.490110000000    -0.15507    
N7       N      0.520870000000     0.194760000000     0.500640000000    -0.15763    
N8       N      0.492570000000     0.300540000000     0.482090000000    -0.154875   
N9       N      0.479790000000     0.801960000000     0.999460000000    -0.158828   
N10      N      0.487430000000     0.700710000000     0.958900000000    -0.155843   
N11      N      0.504570000000     0.197720000000     0.002470000000    -0.159147   
N12      N      0.500880000000     0.306260000000     0.982630000000    -0.154942   
N13      N      0.515810000000     0.001680000000     0.698440000000    -0.160632   
N14      N      0.516040000000     0.002710000000     0.810810000000    -0.154098   
N15      N      0.527070000000     0.974260000000     0.305320000000    -0.158786   
N16      N      0.497770000000     0.999180000000     0.202580000000    -0.154748   
N17      N      0.702960000000     0.492630000000     0.462150000000    -0.160046   
N18      N      0.798390000000     0.497380000000     0.514850000000    -0.155408   
N19      N      0.197390000000     0.506470000000     0.498470000000    -0.159151   
N20      N      0.307660000000     0.515860000000     0.492940000000    -0.155384   
N21      N      0.802550000000     0.516140000000     0.020510000000    -0.159562   
N22      N      0.700460000000     0.518000000000     0.981610000000    -0.156624   
N23      N      0.193550000000     0.492870000000     0.990660000000    -0.158443   
N24      N      0.303570000000     0.505000000000     0.988000000000    -0.154896   
N25      N      0.971640000000     0.514240000000     0.814740000000    -0.160127   
N26      N      0.993920000000     0.503240000000     0.708110000000    -0.154768   
N27      N      0.986370000000     0.496700000000     0.315360000000    -0.158771   
N28      N      0.991960000000     0.517950000000     0.207970000000    -0.155281   
N29      N      0.011310000000     0.802570000000     0.502660000000    -0.160839   
N30      N      0.005210000000     0.694270000000     0.516330000000    -0.15644    
N31      N      0.010260000000     0.195610000000     0.506420000000    -0.16136    
N32      N      0.014190000000     0.303780000000     0.521610000000    -0.15639    
N33      N      0.812410000000     0.009880000000     0.528530000000    -0.15938    
N34      N      0.709850000000     0.985200000000     0.497350000000    -0.155304   
N35      N      0.314680000000     0.019370000000     0.481420000000    -0.158878   
N36      N      0.209370000000     0.994150000000     0.502540000000    -0.154995   
N37      N      0.045700000000     0.812390000000     0.008140000000    -0.160038   
N38      N      0.022280000000     0.705500000000     0.014850000000    -0.154127   
N39      N      0.977230000000     0.204640000000     0.016850000000    -0.160337   
N40      N      0.001620000000     0.311580000000     0.017900000000    -0.155106   
N41      N      0.807200000000     0.984390000000     0.008870000000    -0.157829   
N42      N      0.697660000000     0.983250000000     0.023940000000    -0.155224   
N43      N      0.302120000000     0.016110000000     0.002520000000    -0.159554   
N44      N      0.195450000000     0.040970000000     0.994080000000    -0.155228   
N45      N      0.989300000000     0.009370000000     0.807590000000    -0.160283   
N46      N      0.019090000000     0.002200000000     0.702810000000    -0.154958   
N47      N      0.997480000000     0.002850000000     0.311390000000    -0.160054   
N48      N      0.008300000000     0.999860000000     0.202520000000    -0.155656   
O1       O      0.002350000000     0.006470000000     0.005230000000    -0.369132   
O2       O      0.030030000000     0.036220000000     0.124950000000    -0.306814   
O3       O      0.889010000000     0.954780000000     0.031130000000    -0.293094   
O4       O      0.960640000000     0.126020000000     0.978730000000    -0.303151   
O5       O      0.978700000000     0.966660000000     0.125230000000    -0.299398   
O6       O      0.014880000000     0.128860000000     0.045580000000    -0.30017    
O7       O      0.881060000000     0.026930000000     0.983290000000    -0.301317   
O8       O      0.024090000000     0.977110000000     0.882460000000    -0.303478   
O9       O      0.998710000000     0.882070000000     0.037930000000    -0.297643   
O10      O      0.965270000000     0.040450000000     0.887450000000    -0.29991    
O11      O      0.052960000000     0.893060000000     0.971480000000    -0.300577   
O12      O      0.121480000000     0.001870000000     0.962450000000    -0.29997    
O13      O      0.116310000000     0.050890000000     0.033680000000    -0.303482   
O14      O      0.010450000000     0.998860000000     0.507080000000    -0.373719   
O15      O      0.974530000000     0.033430000000     0.391370000000    -0.303051   
O16      O      0.129650000000     0.971470000000     0.468590000000    -0.301337   
O17      O      0.050010000000     0.119000000000     0.527240000000    -0.304257   
O18      O      0.029970000000     0.966850000000     0.385720000000    -0.301719   
O19      O      0.975210000000     0.117480000000     0.483700000000    -0.305408   
O20      O      0.132320000000     0.023520000000     0.537250000000    -0.302872   
O21      O      0.993620000000     0.962730000000     0.627180000000    -0.29934    
O22      O      0.043880000000     0.881150000000     0.477440000000    -0.303666   
O23      O      0.038810000000     0.036770000000     0.623460000000    -0.301697   
O24      O      0.976110000000     0.878880000000     0.531470000000    -0.303432   
O25      O      0.891640000000     0.973420000000     0.550430000000    -0.301422   
O26      O      0.888830000000     0.030160000000     0.486090000000    -0.302477   
O27      O      0.998750000000     0.509340000000     0.010830000000    -0.372713   
O28      O      0.122120000000     0.521560000000     0.035720000000    -0.299935   
O29      O      0.018560000000     0.388490000000     0.976670000000    -0.303377   
O30      O      0.958780000000     0.491600000000     0.129740000000    -0.302372   
O31      O      0.110010000000     0.476200000000     0.962850000000    -0.297502   
O32      O      0.036720000000     0.529290000000     0.131830000000    -0.301552   
O33      O      0.976060000000     0.390350000000     0.051790000000    -0.300824   
O34      O      0.880880000000     0.553810000000     0.997830000000    -0.297293   
O35      O      0.005420000000     0.475840000000     0.887290000000    -0.302639   
O36      O      0.880330000000     0.475110000000     0.033980000000    -0.304495   
O37      O      0.959110000000     0.548390000000     0.895980000000    -0.300169   
O38      O      0.983100000000     0.631960000000     0.984390000000    -0.302322   
O39      O      0.042550000000     0.624310000000     0.046870000000    -0.296851   
O40      O      0.998080000000     0.498660000000     0.511580000000    -0.371851   
O41      O      0.967210000000     0.619000000000     0.487860000000    -0.303185   
O42      O      0.025230000000     0.532000000000     0.630180000000    -0.302783   
O43      O      0.876750000000     0.460730000000     0.538130000000    -0.300646   
O44      O      0.038300000000     0.614710000000     0.537300000000    -0.305217   
O45      O      0.876380000000     0.533210000000     0.491300000000    -0.304546   
O46      O      0.967700000000     0.467070000000     0.630960000000    -0.300204   
O47      O      0.040840000000     0.381510000000     0.486250000000    -0.301969   
O48      O      0.122120000000     0.520390000000     0.544900000000    -0.300365   
O49      O      0.973810000000     0.380080000000     0.541020000000    -0.309111   
O50      O      0.117230000000     0.481670000000     0.468180000000    -0.303131   
O51      O      0.021370000000     0.468370000000     0.391700000000    -0.303369   
O52      O      0.958600000000     0.528240000000     0.394360000000    -0.295709   
O53      O      0.499890000000     0.999110000000     0.006340000000    -0.370045   
O54      O      0.526730000000     0.032410000000     0.125000000000    -0.301066   
O55      O      0.377500000000     0.986570000000     0.040220000000    -0.299801   
O56      O      0.467490000000     0.120260000000     0.978710000000    -0.300186   
O57      O      0.469240000000     0.967480000000     0.124310000000    -0.3008     
O58      O      0.536670000000     0.119370000000     0.030720000000    -0.300342   
O59      O      0.381790000000     0.027630000000     0.964470000000    -0.302354   
O60      O      0.537110000000     0.966370000000     0.889660000000    -0.299614   
O61      O      0.450600000000     0.881880000000     0.028020000000    -0.295479   
O62      O      0.482410000000     0.033630000000     0.887050000000    -0.30332    
O63      O      0.522150000000     0.877250000000     0.979400000000    -0.304105   
O64      O      0.619990000000     0.955300000000     0.989310000000    -0.301168   
O65      O      0.620550000000     0.025220000000     0.039920000000    -0.302918   
O66      O      0.511450000000     0.995360000000     0.501690000000    -0.369138   
O67      O      0.391720000000     0.035960000000     0.524520000000    -0.30208    
O68      O      0.489390000000     0.953610000000     0.384190000000    -0.300642   
O69      O      0.544270000000     0.113850000000     0.467990000000    -0.298607   
O70      O      0.392170000000     0.978040000000     0.461160000000    -0.30003    
O71      O      0.488280000000     0.117500000000     0.532990000000    -0.300416   
O72      O      0.546900000000     0.017530000000     0.381120000000    -0.302505   
O73      O      0.631060000000     0.954640000000     0.527270000000    -0.30155    
O74      O      0.466890000000     0.877820000000     0.483170000000    -0.300225   
O75      O      0.632000000000     0.021460000000     0.472680000000    -0.30334    
O76      O      0.529990000000     0.874840000000     0.541540000000    -0.302144   
O77      O      0.546940000000     0.971880000000     0.620520000000    -0.302116   
O78      O      0.478570000000     0.025280000000     0.620770000000    -0.301947   
O79      O      0.501970000000     0.504360000000     0.979020000000    -0.370352   
O80      O      0.625500000000     0.475160000000     0.960000000000    -0.306402   
O81      O      0.523980000000     0.628110000000     0.994050000000    -0.304829   
O82      O      0.471110000000     0.515940000000     0.857180000000    -0.298229   
O83      O      0.619700000000     0.549470000000     0.003340000000    -0.304556   
O84      O      0.542810000000     0.467560000000     0.865150000000    -0.301585   
O85      O      0.458510000000     0.618580000000     0.938160000000    -0.298004   
O86      O      0.383280000000     0.482450000000     0.022530000000    -0.299826   
O87      O      0.529200000000     0.548080000000     0.094470000000    -0.297604   
O88      O      0.380040000000     0.519930000000     0.944950000000    -0.30328    
O89      O      0.485820000000     0.473020000000     0.100060000000    -0.300018   
O90      O      0.466070000000     0.384750000000     0.007990000000    -0.299799   
O91      O      0.538560000000     0.383860000000     0.960650000000    -0.30319    
O92      O      0.505450000000     0.499170000000     0.481450000000    -0.366798   
O93      O      0.385060000000     0.533150000000     0.451770000000    -0.301599   
O94      O      0.468060000000     0.380040000000     0.516480000000    -0.297876   
O95      O      0.525680000000     0.465270000000     0.359510000000    -0.299254   
O96      O      0.384930000000     0.480540000000     0.520200000000    -0.302571   
O97      O      0.477530000000     0.537130000000     0.363220000000    -0.302977   
O98      O      0.524270000000     0.377660000000     0.450950000000    -0.304691   
O99      O      0.628940000000     0.528060000000     0.497150000000    -0.300863   
O100     O      0.476840000000     0.477530000000     0.601760000000    -0.305149   
O101     O      0.622050000000     0.458680000000     0.445780000000    -0.299625   
O102     O      0.549900000000     0.524250000000     0.599740000000    -0.299354   
O103     O      0.541520000000     0.618030000000     0.513810000000    -0.300554   
O104     O      0.476160000000     0.620800000000     0.457480000000    -0.303096   
S1       S      0.407080000000     0.466850000000     0.781960000000     0.00525826 
S2       S      0.489170000000     0.611510000000     0.176830000000     0.00532518 
S3       S      0.395870000000     0.799210000000     0.470610000000     0.0118217  
S4       S      0.586320000000     0.198150000000     0.420540000000     0.0110688  
S5       S      0.380060000000     0.807140000000     0.978360000000     0.00399149 
S6       S      0.604620000000     0.195210000000     0.982700000000     0.00410533 
S7       S      0.609220000000     0.015320000000     0.728610000000     0.00497361 
S8       S      0.468870000000     0.888700000000     0.302940000000     0.013146   
S9       S      0.703840000000     0.593080000000     0.443570000000     0.00486652 
S10      S      0.187860000000     0.540530000000     0.403520000000     0.00174758 
S11      S      0.801140000000     0.617030000000     0.039410000000     0.00780728 
S12      S      0.186830000000     0.510260000000     0.890710000000     0.00600107 
S13      S      0.996650000000     0.613220000000     0.812820000000     0.00282033 
S14      S      0.884100000000     0.503580000000     0.315120000000     0.00475523 
S15      S      0.111680000000     0.802240000000     0.521110000000     0.00427298 
S16      S      0.915310000000     0.191310000000     0.543650000000     0.00418776 
S17      S      0.808150000000     0.099260000000     0.476920000000     0.0139924  
S18      S      0.311360000000     0.966280000000     0.393050000000     0.0127961  
S19      S      0.064620000000     0.819520000000     0.107820000000     0.00162666 
S20      S      0.971110000000     0.201010000000     0.118650000000     0.00351882 
S21      S      0.809830000000     0.883300000000     0.995680000000     0.006241   
S22      S      0.304780000000     0.049760000000     0.098290000000     0.00451538 
S23      S      0.999110000000     0.110980000000     0.806640000000     0.00247571 
S24      S      0.016670000000     0.102840000000     0.313160000000     0.00378132 
Zn1      Zn     0.039790000000     0.054210000000     0.050660000000     0.457259   
Zn2      Zn     0.967190000000     0.953710000000     0.048170000000     0.44844    
Zn3      Zn     0.954150000000     0.048990000000     0.964720000000     0.453097   
Zn4      Zn     0.048710000000     0.970520000000     0.956540000000     0.450467   
Zn5      Zn     0.963590000000     0.042740000000     0.467780000000     0.462755   
Zn6      Zn     0.052450000000     0.956470000000     0.460500000000     0.455556   
Zn7      Zn     0.056720000000     0.043310000000     0.547370000000     0.454037   
Zn8      Zn     0.968890000000     0.954300000000     0.552600000000     0.450489   
Zn9      Zn     0.049090000000     0.544820000000     0.055520000000     0.448143   
Zn10     Zn     0.031870000000     0.463970000000     0.960240000000     0.454508   
Zn11     Zn     0.955140000000     0.466980000000     0.055200000000     0.452845   
Zn12     Zn     0.956330000000     0.559630000000     0.973630000000     0.45583    
Zn13     Zn     0.951620000000     0.543750000000     0.471970000000     0.45331    
Zn14     Zn     0.045260000000     0.539130000000     0.554910000000     0.453507   
Zn15     Zn     0.954520000000     0.453410000000     0.554100000000     0.453936   
Zn16     Zn     0.042710000000     0.458120000000     0.465780000000     0.455311   
Zn17     Zn     0.544500000000     0.043290000000     0.049010000000     0.452863   
Zn18     Zn     0.450860000000     0.959170000000     0.048500000000     0.450912   
Zn19     Zn     0.458920000000     0.043630000000     0.960640000000     0.453286   
Zn20     Zn     0.543970000000     0.951140000000     0.967060000000     0.451848   
Zn21     Zn     0.468310000000     0.041590000000     0.544360000000     0.449112   
Zn22     Zn     0.466350000000     0.952320000000     0.458810000000     0.457331   
Zn23     Zn     0.556480000000     0.036680000000     0.456920000000     0.453161   
Zn24     Zn     0.554220000000     0.950100000000     0.545720000000     0.451565   
Zn25     Zn     0.551030000000     0.459210000000     0.942820000000     0.455504   
Zn26     Zn     0.542230000000     0.556090000000     0.016980000000     0.453945   
Zn27     Zn     0.454590000000     0.538920000000     0.930670000000     0.451157   
Zn28     Zn     0.460250000000     0.461980000000     0.026260000000     0.447436   
Zn29     Zn     0.462350000000     0.545710000000     0.439390000000     0.452508   
Zn30     Zn     0.460320000000     0.459190000000     0.528080000000     0.4499     
Zn31     Zn     0.543390000000     0.451600000000     0.435680000000     0.449792   
Zn32     Zn     0.555400000000     0.540630000000     0.522140000000     0.44867    


