data_structure

_audit_creation_method RASPA-1.0
_audit_creation_date 2023-5-19
_audit_author_name 'Poobodin Mano'

_cell_length_a    25.7621
_cell_length_b    25.6934
_cell_length_c    25.6772
_cell_angle_alpha 90
_cell_angle_beta  90
_cell_angle_gamma 90
_cell_volume      16996.1

_symmetry_cell_setting          triclinic
_symmetry_space_group_name_Hall 'P 1'
_symmetry_space_group_name_H-M  'P 1'
_symmetry_Int_Tables_number     1

_symmetry_equiv_pos_as_xyz 'x,y,z'

loop_
_atom_site_label
_atom_site_type_symbol
_atom_site_fract_x
_atom_site_fract_y
_atom_site_fract_z
_atom_site_charge
C1       C      0.147520000000     0.006400000000     0.013580000000     0.360816   
C2       C      0.004660000000     0.860110000000     0.999940000000     0.362818   
C3       C      0.012000000000     0.003550000000     0.149460000000     0.363643   
C4       C      0.859190000000     0.993290000000     0.012920000000     0.360329   
C5       C      0.007730000000     0.002350000000     0.862100000000     0.361467   
C6       C      0.989780000000     0.145320000000     0.999490000000     0.361562   
C7       C      0.994040000000     0.999730000000     0.361310000000     0.361248   
C8       C      0.141820000000     0.987490000000     0.494740000000     0.365427   
C9       C      0.001460000000     0.135860000000     0.514450000000     0.359298   
C10      C      0.003820000000     0.988180000000     0.648040000000     0.362604   
C11      C      0.994670000000     0.851830000000     0.503400000000     0.36092    
C12      C      0.854160000000     0.995860000000     0.501200000000     0.362519   
C13      C      0.856000000000     0.505500000000     0.993400000000     0.364303   
C14      C      0.000720000000     0.498110000000     0.131860000000     0.363379   
C15      C      0.000030000000     0.358120000000     0.981740000000     0.362476   
C16      C      0.144870000000     0.504440000000     0.988510000000     0.359509   
C17      C      0.997530000000     0.646360000000     0.984540000000     0.364494   
C18      C      0.996250000000     0.502760000000     0.842960000000     0.36239    
C19      C      0.999540000000     0.346510000000     0.487800000000     0.364144   
C20      C      0.007520000000     0.499740000000     0.346550000000     0.358959   
C21      C      0.856840000000     0.492070000000     0.480370000000     0.365612   
C22      C      0.996760000000     0.637360000000     0.500980000000     0.366305   
C23      C      0.144670000000     0.495640000000     0.481940000000     0.368731   
C24      C      0.004800000000     0.485490000000     0.629820000000     0.358755   
C25      C      0.506760000000     0.008770000000     0.157830000000     0.359449   
C26      C      0.358800000000     0.002870000000     0.033450000000     0.362004   
C27      C      0.501250000000     0.154420000000     0.013510000000     0.362104   
C28      C      0.488540000000     0.026870000000     0.871900000000     0.360475   
C29      C      0.510800000000     0.869250000000     0.998120000000     0.360514   
C30      C      0.645530000000     0.009970000000     0.013550000000     0.360034   
C31      C      0.352930000000     0.004260000000     0.504460000000     0.364734   
C32      C      0.498220000000     0.144270000000     0.526360000000     0.361841   
C33      C      0.492320000000     0.004230000000     0.660920000000     0.361167   
C34      C      0.639520000000     0.002540000000     0.507140000000     0.362502   
C35      C      0.495670000000     0.005610000000     0.372970000000     0.358373   
C36      C      0.497710000000     0.860900000000     0.524240000000     0.357696   
C37      C      0.510160000000     0.651930000000     0.992690000000     0.361221   
C38      C      0.498260000000     0.502270000000     0.142100000000     0.360304   
C39      C      0.357770000000     0.517510000000     0.004780000000     0.360069   
C40      C      0.497600000000     0.364970000000     0.986610000000     0.362823   
C41      C      0.644320000000     0.502080000000     0.011060000000     0.365966   
C42      C      0.504100000000     0.510070000000     0.854970000000     0.362454   
C43      C      0.356360000000     0.504440000000     0.496550000000     0.368238   
C44      C      0.496800000000     0.356280000000     0.506120000000     0.366245   
C45      C      0.492490000000     0.500740000000     0.357290000000     0.357416   
C46      C      0.643470000000     0.496680000000     0.488130000000     0.365086   
C47      C      0.503920000000     0.499020000000     0.640730000000     0.359856   
C48      C      0.503620000000     0.646970000000     0.508150000000     0.362057   
C49      C      0.457190000000     0.487490000000     0.723300000000    -0.012397   
C50      C      0.554840000000     0.490670000000     0.721310000000    -0.0132788  
C51      C      0.457090000000     0.520680000000     0.772480000000    -0.0119522  
C52      C      0.554790000000     0.518080000000     0.774300000000    -0.0132263  
C53      C      0.480100000000     0.450240000000     0.276670000000    -0.0134869  
C54      C      0.476920000000     0.547920000000     0.275450000000    -0.0123676  
C55      C      0.504810000000     0.450370000000     0.222220000000    -0.0137985  
C56      C      0.508250000000     0.548440000000     0.225120000000    -0.0123298  
C57      C      0.552520000000     0.728740000000     0.508900000000    -0.0137555  
C58      C      0.454610000000     0.728700000000     0.503450000000    -0.0120709  
C59      C      0.550300000000     0.781720000000     0.536560000000    -0.0129745  
C60      C      0.453010000000     0.777250000000     0.537780000000    -0.0122206  
C61      C      0.446520000000     0.275540000000     0.509250000000    -0.0130987  
C62      C      0.544170000000     0.273550000000     0.500000000000    -0.0117882  
C63      C      0.448860000000     0.225020000000     0.540670000000    -0.012217   
C64      C      0.546280000000     0.226510000000     0.536410000000    -0.0119604  
C65      C      0.507870000000     0.785060000000     0.042460000000    -0.0129454  
C66      C      0.524340000000     0.789830000000     0.944880000000    -0.013663   
C67      C      0.535360000000     0.732740000000     0.037010000000    -0.0135546  
C68      C      0.499900000000     0.734910000000     0.944640000000    -0.0138185  
C69      C      0.447860000000     0.282890000000     0.983290000000    -0.0123932  
C70      C      0.544780000000     0.282450000000     0.972210000000    -0.0131136  
C71      C      0.451710000000     0.235890000000     0.019490000000    -0.0126453  
C72      C      0.549220000000     0.237580000000     0.011370000000    -0.0115079  
C73      C      0.437830000000     0.033260000000     0.789930000000    -0.0124064  
C74      C      0.534230000000     0.046240000000     0.789890000000    -0.011537   
C75      C      0.442950000000     0.995650000000     0.743450000000    -0.0136997  
C76      C      0.539940000000     0.009320000000     0.743860000000    -0.013257   
C77      C      0.484080000000     0.957830000000     0.290620000000    -0.0137209  
C78      C      0.488260000000     0.055620000000     0.291260000000    -0.01298    
C79      C      0.512680000000     0.957110000000     0.238370000000    -0.0135302  
C80      C      0.520490000000     0.054570000000     0.241200000000    -0.0126831  
C81      C      0.726350000000     0.542440000000     0.492760000000    -0.0114445  
C82      C      0.721890000000     0.444250000000     0.494300000000    -0.0135804  
C83      C      0.776390000000     0.539320000000     0.461390000000    -0.0115662  
C84      C      0.776420000000     0.441880000000     0.470430000000    -0.0126307  
C85      C      0.228240000000     0.451780000000     0.468740000000    -0.0113451  
C86      C      0.222470000000     0.549480000000     0.469450000000    -0.0122438  
C87      C      0.275980000000     0.454230000000     0.503620000000    -0.0117284  
C88      C      0.274380000000     0.552500000000     0.498250000000    -0.0129678  
C89      C      0.727640000000     0.526670000000     0.053350000000    -0.0129265  
C90      C      0.724490000000     0.453960000000     0.988740000000    -0.0133453  
C91      C      0.776270000000     0.548260000000     0.026460000000    -0.0137938  
C92      C      0.771020000000     0.476340000000     0.959860000000    -0.0129074  
C93      C      0.227370000000     0.466890000000     0.020780000000    -0.0131864  
C94      C      0.228000000000     0.537870000000     0.953170000000    -0.0136554  
C95      C      0.274790000000     0.491640000000     0.046790000000    -0.0136325  
C96      C      0.275760000000     0.561890000000     0.979470000000    -0.014212   
C97      C      0.973450000000     0.448060000000     0.713240000000    -0.0135292  
C98      C      0.050470000000     0.507590000000     0.711870000000    -0.013511   
C99      C      0.952380000000     0.476560000000     0.761130000000    -0.013566   
C100     C      0.029200000000     0.536850000000     0.759050000000    -0.0132311  
C101     C      0.962140000000     0.527470000000     0.214940000000    -0.0132551  
C102     C      0.024820000000     0.452480000000     0.213220000000    -0.0132618  
C103     C      0.987020000000     0.547140000000     0.265190000000    -0.0135297  
C104     C      0.049000000000     0.471930000000     0.264040000000    -0.0137166  
C105     C      0.943810000000     0.716030000000     0.512980000000    -0.0127028  
C106     C      0.040720000000     0.718820000000     0.524180000000    -0.0116138  
C107     C      0.944870000000     0.771790000000     0.491450000000    -0.0138223  
C108     C      0.042800000000     0.770270000000     0.494810000000    -0.0118273  
C109     C      0.952930000000     0.217700000000     0.526530000000    -0.0122423  
C110     C      0.050250000000     0.218510000000     0.519780000000    -0.0125546  
C111     C      0.949790000000     0.264800000000     0.490340000000    -0.0127563  
C112     C      0.047170000000     0.263400000000     0.480460000000    -0.0122958  
C113     C      0.717800000000     0.013280000000     0.453010000000    -0.0133901  
C114     C      0.723220000000     0.013700000000     0.550910000000    -0.0119664  
C115     C      0.773120000000     0.990490000000     0.450560000000    -0.0140841  
C116     C      0.772770000000     0.981820000000     0.548290000000    -0.0121819  
C117     C      0.269130000000     0.006250000000     0.549290000000    -0.0124543  
C118     C      0.273250000000     0.014660000000     0.451520000000    -0.0125402  
C119     C      0.221510000000     0.971830000000     0.544260000000    -0.0117902  
C120     C      0.224940000000     0.979710000000     0.446800000000    -0.0121836  
C121     C      0.020910000000     0.729590000000     0.941780000000    -0.0129845  
C122     C      0.953260000000     0.727290000000     0.011700000000    -0.0124287  
C123     C      0.043580000000     0.779350000000     0.965310000000    -0.0137719  
C124     C      0.976150000000     0.776090000000     0.036380000000    -0.0133632  
C125     C      0.969780000000     0.275040000000     0.942160000000    -0.0138888  
C126     C      0.041160000000     0.275550000000     0.008650000000    -0.0123459  
C127     C      0.946690000000     0.226010000000     0.967660000000    -0.0136696  
C128     C      0.015630000000     0.230120000000     0.036580000000    -0.0130971  
C129     C      0.726930000000     0.011820000000     0.964030000000    -0.0135018  
C130     C      0.728190000000     0.016330000000     0.062090000000    -0.0128319  
C131     C      0.777470000000     0.980750000000     0.965070000000    -0.0131942  
C132     C      0.777500000000     0.982610000000     0.062710000000    -0.0125642  
C133     C      0.276910000000     0.954040000000     0.046090000000    -0.0122721  
C134     C      0.278340000000     0.051190000000     0.052840000000    -0.0117225  
C135     C      0.229710000000     0.957130000000     0.009680000000    -0.0129349  
C136     C      0.229400000000     0.055110000000     0.019410000000    -0.0135801  
C137     C      0.958820000000     0.007150000000     0.780150000000    -0.0120238  
C138     C      0.056640000000     0.011160000000     0.780180000000    -0.0131524  
C139     C      0.960270000000     0.972680000000     0.731830000000    -0.0122206  
C140     C      0.057220000000     0.982990000000     0.727450000000    -0.0134197  
C141     C      0.984870000000     0.952830000000     0.278180000000    -0.0129129  
C142     C      0.988620000000     0.050760000000     0.279840000000    -0.0128239  
C143     C      0.019790000000     0.952320000000     0.230260000000    -0.0124577  
C144     C      0.025350000000     0.049940000000     0.232830000000    -0.0125314  
H1       H      0.561850000000     0.448400000000     0.727390000000     0.0440393  
H2       H      0.454740000000     0.445550000000     0.733720000000     0.0474328  
H3       H      0.422130000000     0.509940000000     0.795590000000     0.0467217  
H4       H      0.587930000000     0.506130000000     0.698170000000     0.0482518  
H5       H      0.587960000000     0.502760000000     0.797400000000     0.0482087  
H6       H      0.561610000000     0.560380000000     0.768210000000     0.0441844  
H7       H      0.422090000000     0.497960000000     0.700300000000     0.0472183  
H8       H      0.454300000000     0.562610000000     0.762070000000     0.0470334  
H9       H      0.434720000000     0.550090000000     0.266570000000     0.0468873  
H10      H      0.437670000000     0.443370000000     0.272650000000     0.0433931  
H11      H      0.487430000000     0.417900000000     0.199490000000     0.0481695  
H12      H      0.487890000000     0.583090000000     0.298240000000     0.0470848  
H13      H      0.496570000000     0.583680000000     0.202770000000     0.0467062  
H14      H      0.550380000000     0.551360000000     0.234100000000     0.0477317  
H15      H      0.496450000000     0.416850000000     0.298820000000     0.0484442  
H16      H      0.547030000000     0.442270000000     0.226160000000     0.0445906  
H17      H      0.451970000000     0.740020000000     0.461720000000     0.0482527  
H18      H      0.561650000000     0.735260000000     0.467080000000     0.0443364  
H19      H      0.583210000000     0.805910000000     0.522350000000     0.047058   
H20      H      0.420230000000     0.704350000000     0.513250000000     0.0450909  
H21      H      0.417420000000     0.799650000000     0.527710000000     0.0460295  
H22      H      0.450710000000     0.765910000000     0.579520000000     0.0465245  
H23      H      0.585070000000     0.705990000000     0.526000000000     0.0472924  
H24      H      0.556220000000     0.775610000000     0.579020000000     0.0432183  
H25      H      0.544730000000     0.260380000000     0.458750000000     0.0477168  
H26      H      0.436500000000     0.266100000000     0.468190000000     0.0447321  
H27      H      0.414430000000     0.200910000000     0.530610000000     0.0466873  
H28      H      0.579350000000     0.297660000000     0.507180000000     0.0445811  
H29      H      0.580610000000     0.202530000000     0.525580000000     0.0456444  
H30      H      0.551150000000     0.239640000000     0.577390000000     0.0460398  
H31      H      0.414570000000     0.299910000000     0.525240000000     0.047248   
H32      H      0.446090000000     0.234510000000     0.582840000000     0.0436018  
H33      H      0.507610000000     0.812410000000     0.911940000000     0.045153   
H34      H      0.465820000000     0.778620000000     0.049890000000     0.0495021  
H35      H      0.528400000000     0.710480000000     0.073540000000     0.047648   
H36      H      0.566960000000     0.786660000000     0.938830000000     0.0465951  
H37      H      0.456900000000     0.738570000000     0.943820000000     0.0486087  
H38      H      0.512530000000     0.714400000000     0.908650000000     0.0446149  
H39      H      0.524860000000     0.805510000000     0.076680000000     0.0456896  
H40      H      0.577870000000     0.738830000000     0.032690000000     0.0467544  
H41      H      0.543610000000     0.266700000000     0.931890000000     0.0458648  
H42      H      0.439220000000     0.269130000000     0.943150000000     0.0445746  
H43      H      0.417180000000     0.210750000000     0.012870000000     0.0477717  
H44      H      0.580030000000     0.307190000000     0.975980000000     0.0468546  
H45      H      0.582910000000     0.212960000000     0.999980000000     0.0449023  
H46      H      0.556520000000     0.253290000000     0.051050000000     0.0466205  
H47      H      0.414620000000     0.307460000000     0.995930000000     0.0472173  
H48      H      0.450080000000     0.249530000000     0.060560000000     0.045015   
H49      H      0.531770000000     0.086880000000     0.775200000000     0.0442143  
H50      H      0.429020000000     0.073100000000     0.775500000000     0.0450366  
H51      H      0.408060000000     0.000510000000     0.718380000000     0.0466384  
H52      H      0.569730000000     0.043750000000     0.814440000000     0.0469346  
H53      H      0.572970000000     0.023040000000     0.719600000000     0.0486363  
H54      H      0.550010000000     0.969860000000     0.758480000000     0.046323   
H55      H      0.404870000000     0.020260000000     0.814710000000     0.0455908  
H56      H      0.443640000000     0.954840000000     0.757860000000     0.0463937  
H57      H      0.446630000000     0.061840000000     0.281610000000     0.0464202  
H58      H      0.441650000000     0.954500000000     0.283380000000     0.0443674  
H59      H      0.496610000000     0.924560000000     0.214810000000     0.0486718  
H60      H      0.501810000000     0.089240000000     0.314950000000     0.0477315  
H61      H      0.511270000000     0.090430000000     0.218740000000     0.0471546  
H62      H      0.562550000000     0.055150000000     0.250960000000     0.0463137  
H63      H      0.496200000000     0.922800000000     0.312960000000     0.0488422  
H64      H      0.554410000000     0.948500000000     0.245400000000     0.0439823  
H65      H      0.725080000000     0.437980000000     0.537040000000     0.043902   
H66      H      0.735390000000     0.547390000000     0.534840000000     0.0485182  
H67      H      0.799770000000     0.574680000000     0.470200000000     0.0454558  
H68      H      0.698680000000     0.411550000000     0.477990000000     0.0467122  
H69      H      0.798040000000     0.409460000000     0.489260000000     0.0464523  
H70      H      0.772960000000     0.432420000000     0.428310000000     0.0431665  
H71      H      0.704240000000     0.577140000000     0.479240000000     0.0436508  
H72      H      0.767560000000     0.538930000000     0.418980000000     0.0470459  
H73      H      0.229450000000     0.555030000000     0.427080000000     0.0432474  
H74      H      0.240080000000     0.449490000000     0.427150000000     0.0461302  
H75      H      0.300870000000     0.420060000000     0.494280000000     0.0452734  
H76      H      0.197580000000     0.582240000000     0.482820000000     0.0466835  
H77      H      0.296820000000     0.585780000000     0.482080000000     0.0469986  
H78      H      0.266850000000     0.560890000000     0.540060000000     0.0441067  
H79      H      0.206210000000     0.415860000000     0.478710000000     0.0455237  
H80      H      0.264260000000     0.451710000000     0.545230000000     0.0477862  
H81      H      0.738080000000     0.424620000000     0.017540000000     0.0441726  
H82      H      0.739400000000     0.501410000000     0.086480000000     0.0441398  
H83      H      0.801720000000     0.564830000000     0.057230000000     0.0494714  
H84      H      0.699740000000     0.433130000000     0.960090000000     0.0498811  
H85      H      0.792930000000     0.443160000000     0.942860000000     0.0491052  
H86      H      0.757390000000     0.501360000000     0.927280000000     0.0462448  
H87      H      0.705300000000     0.559980000000     0.069540000000     0.0484798  
H88      H      0.764880000000     0.580590000000     0.000040000000     0.0450224  
H89      H      0.240710000000     0.513170000000     0.919980000000     0.0455064  
H90      H      0.240300000000     0.435010000000     0.994520000000     0.0451959  
H91      H      0.298060000000     0.460000000000     0.064850000000     0.0494861  
H92      H      0.204370000000     0.570340000000     0.937140000000     0.0491015  
H93      H      0.299710000000     0.580690000000     0.948790000000     0.0496267  
H94      H      0.263070000000     0.592900000000     0.006860000000     0.0446464  
H95      H      0.203300000000     0.449240000000     0.052080000000     0.0491931  
H96      H      0.261740000000     0.517880000000     0.078650000000     0.0444035  
H97      H      0.078300000000     0.477280000000     0.725160000000     0.0448653  
H98      H      0.995750000000     0.413240000000     0.725960000000     0.0447569  
H99      H      0.931800000000     0.447480000000     0.785640000000     0.0495982  
H100     H      0.072470000000     0.535870000000     0.687670000000     0.0500849  
H101     H      0.062900000000     0.550880000000     0.782150000000     0.0494019  
H102     H      0.007050000000     0.571520000000     0.745710000000     0.045563   
H103     H      0.939760000000     0.434170000000     0.690050000000     0.0495645  
H104     H      0.923430000000     0.506100000000     0.748560000000     0.0451923  
H105     H      0.995750000000     0.421730000000     0.222060000000     0.0450197  
H106     H      0.927300000000     0.503760000000     0.224510000000     0.0453536  
H107     H      0.956160000000     0.566500000000     0.288440000000     0.0498077  
H108     H      0.056310000000     0.434410000000     0.189770000000     0.0489751  
H109     H      0.062120000000     0.437290000000     0.286380000000     0.0497635  
H110     H      0.083880000000     0.495780000000     0.255040000000     0.0446077  
H111     H      0.948930000000     0.562110000000     0.192640000000     0.0495218  
H112     H      0.016890000000     0.576930000000     0.255740000000     0.0449947  
H113     H      0.039220000000     0.726010000000     0.566870000000     0.0467795  
H114     H      0.933270000000     0.717430000000     0.554960000000     0.0429831  
H115     H      0.911200000000     0.793290000000     0.507990000000     0.0470073  
H116     H      0.076940000000     0.696930000000     0.515240000000     0.045867   
H117     H      0.076530000000     0.792830000000     0.509830000000     0.0445888  
H118     H      0.048760000000     0.763020000000     0.452520000000     0.0483684  
H119     H      0.912640000000     0.694150000000     0.492490000000     0.0465687  
H120     H      0.939560000000     0.770210000000     0.448500000000     0.043925   
H121     H      0.056380000000     0.234250000000     0.559650000000     0.0460729  
H122     H      0.951600000000     0.231360000000     0.567600000000     0.0442976  
H123     H      0.917010000000     0.289810000000     0.503320000000     0.0472817  
H124     H      0.084210000000     0.193770000000     0.509580000000     0.0460747  
H125     H      0.082310000000     0.288100000000     0.485430000000     0.0458686  
H126     H      0.047180000000     0.247670000000     0.440120000000     0.0466464  
H127     H      0.918110000000     0.192900000000     0.520130000000     0.0470426  
H128     H      0.940670000000     0.251210000000     0.450250000000     0.0452333  
H129     H      0.732620000000     0.055830000000     0.554220000000     0.0469736  
H130     H      0.719990000000     0.055930000000     0.446000000000     0.0430188  
H131     H      0.794490000000     0.010560000000     0.418720000000     0.0477147  
H132     H      0.701910000000     0.001580000000     0.586620000000     0.0466445  
H133     H      0.795960000000     0.991080000000     0.583690000000     0.0465725  
H134     H      0.763460000000     0.939550000000     0.548710000000     0.0471742  
H135     H      0.694780000000     0.996050000000     0.420670000000     0.047515   
H136     H      0.770460000000     0.948610000000     0.439940000000     0.0430003  
H137     H      0.261460000000     0.056260000000     0.449850000000     0.0461384  
H138     H      0.256640000000     0.047040000000     0.556560000000     0.0455526  
H139     H      0.196320000000     0.978160000000     0.578880000000     0.0468876  
H140     H      0.299060000000     0.006540000000     0.417740000000     0.0455088  
H141     H      0.201810000000     0.992870000000     0.412650000000     0.0448317  
H142     H      0.237030000000     0.938730000000     0.439980000000     0.0454197  
H143     H      0.291500000000     0.993220000000     0.583970000000     0.047896   
H144     H      0.233710000000     0.930310000000     0.544730000000     0.0441893  
H145     H      0.920970000000     0.738370000000     0.985160000000     0.0438998  
H146     H      0.993360000000     0.739910000000     0.910080000000     0.0442712  
H147     H      0.057660000000     0.803810000000     0.932490000000     0.0495554  
H148     H      0.936450000000     0.703250000000     0.043500000000     0.0495045  
H149     H      0.943450000000     0.798340000000     0.053800000000     0.0493537  
H150     H      0.003030000000     0.764850000000     0.068350000000     0.0458413  
H151     H      0.053410000000     0.707280000000     0.924090000000     0.048885   
H152     H      0.077580000000     0.769280000000     0.990000000000     0.0452786  
H153     H      0.071110000000     0.260760000000     0.981190000000     0.0450868  
H154     H      0.994540000000     0.263290000000     0.908700000000     0.0442671  
H155     H      0.930810000000     0.200890000000     0.936210000000     0.0486874  
H156     H      0.061260000000     0.299610000000     0.038450000000     0.0493498  
H157     H      0.046770000000     0.207810000000     0.056540000000     0.0501068  
H158     H      0.988910000000     0.245080000000     0.067140000000     0.0452937  
H159     H      0.937110000000     0.298540000000     0.926450000000     0.0490522  
H160     H      0.913860000000     0.237460000000     0.993330000000     0.0444352  
H161     H      0.739000000000     0.058130000000     0.065040000000     0.0471349  
H162     H      0.736060000000     0.053470000000     0.956580000000     0.044906   
H163     H      0.800640000000     0.991590000000     0.930160000000     0.0476468  
H164     H      0.704610000000     0.005950000000     0.096890000000     0.0460294  
H165     H      0.801380000000     0.994340000000     0.096860000000     0.0457276  
H166     H      0.766800000000     0.940940000000     0.067340000000     0.0456393  
H167     H      0.703360000000     0.997540000000     0.930680000000     0.0481534  
H168     H      0.768280000000     0.938600000000     0.961750000000     0.0437859  
H169     H      0.267030000000     0.051830000000     0.094630000000     0.0431944  
H170     H      0.263740000000     0.948400000000     0.086950000000     0.045196   
H171     H      0.205120000000     0.922310000000     0.017120000000     0.0467415  
H172     H      0.302760000000     0.086200000000     0.045800000000     0.0468059  
H173     H      0.205430000000     0.087680000000     0.034770000000     0.0482483  
H174     H      0.240700000000     0.065190000000     0.978850000000     0.046005   
H175     H      0.300770000000     0.919770000000     0.034740000000     0.0457972  
H176     H      0.242880000000     0.955830000000     0.968460000000     0.0472675  
H177     H      0.061040000000     0.053670000000     0.773350000000     0.0441249  
H178     H      0.952760000000     0.048460000000     0.768690000000     0.0470624  
H179     H      0.923950000000     0.979590000000     0.709390000000     0.0460899  
H180     H      0.090960000000     0.998010000000     0.802920000000     0.0474748  
H181     H      0.088600000000     0.000230000000     0.703210000000     0.0476087  
H182     H      0.067270000000     0.941410000000     0.733940000000     0.0432863  
H183     H      0.925140000000     0.994560000000     0.804220000000     0.046454   
H184     H      0.961530000000     0.930970000000     0.743350000000     0.0467031  
H185     H      0.948020000000     0.056730000000     0.266420000000     0.0461514  
H186     H      0.943660000000     0.950360000000     0.265540000000     0.0449592  
H187     H      0.008550000000     0.918770000000     0.205340000000     0.0482601  
H188     H      0.999640000000     0.084290000000     0.304930000000     0.0470736  
H189     H      0.018020000000     0.085550000000     0.209310000000     0.0469353  
H190     H      0.066320000000     0.050960000000     0.246410000000     0.0456264  
H191     H      0.993330000000     0.917430000000     0.301600000000     0.0485606  
H192     H      0.060630000000     0.945870000000     0.242730000000     0.0447658  
N1       N      0.505090000000     0.511410000000     0.801900000000    -0.156631   
N2       N      0.505100000000     0.497140000000     0.693790000000    -0.155974   
N3       N      0.498310000000     0.500600000000     0.195270000000    -0.155921   
N4       N      0.488000000000     0.499890000000     0.304300000000    -0.155362   
N5       N      0.500110000000     0.808020000000     0.528830000000    -0.155481   
N6       N      0.503160000000     0.699930000000     0.512440000000    -0.156187   
N7       N      0.497790000000     0.197010000000     0.531420000000    -0.156708   
N8       N      0.496500000000     0.303420000000     0.509890000000    -0.157431   
N9       N      0.515330000000     0.704830000000     0.991110000000    -0.157214   
N10      N      0.514270000000     0.816330000000     0.994790000000    -0.157229   
N11      N      0.500760000000     0.207430000000     0.011480000000    -0.15662    
N12      N      0.496970000000     0.312040000000     0.982510000000    -0.156683   
N13      N      0.491100000000     0.006170000000     0.714130000000    -0.155918   
N14      N      0.486730000000     0.034220000000     0.819300000000    -0.15642    
N15      N      0.508620000000     0.007410000000     0.211050000000    -0.155735   
N16      N      0.494020000000     0.006230000000     0.319720000000    -0.155453   
N17      N      0.804220000000     0.491620000000     0.475690000000    -0.157425   
N18      N      0.696120000000     0.494630000000     0.485120000000    -0.15713    
N19      N      0.303650000000     0.503430000000     0.494460000000    -0.15806    
N20      N      0.197120000000     0.498750000000     0.477270000000    -0.158378   
N21      N      0.802960000000     0.507640000000     0.995640000000    -0.156919   
N22      N      0.696790000000     0.495870000000     0.016350000000    -0.15715    
N23      N      0.304830000000     0.522030000000     0.008640000000    -0.155376   
N24      N      0.198120000000     0.505620000000     0.990100000000    -0.15565    
N25      N      0.994610000000     0.502920000000     0.789640000000    -0.156267   
N26      N      0.007860000000     0.482440000000     0.683000000000    -0.155493   
N27      N      0.011730000000     0.503930000000     0.293550000000    -0.155583   
N28      N      0.999000000000     0.495270000000     0.185090000000    -0.156575   
N29      N      0.994060000000     0.798830000000     0.502700000000    -0.156227   
N30      N      0.994400000000     0.689890000000     0.507870000000    -0.157535   
N31      N      0.999320000000     0.293440000000     0.489180000000    -0.156913   
N32      N      0.001560000000     0.188780000000     0.518360000000    -0.156001   
N33      N      0.801170000000     0.994780000000     0.500430000000    -0.156595   
N34      N      0.692390000000     0.004540000000     0.503710000000    -0.156582   
N35      N      0.194430000000     0.982650000000     0.495040000000    -0.157715   
N36      N      0.300130000000     0.004630000000     0.501160000000    -0.157176   
N37      N      0.004840000000     0.806910000000     0.997470000000    -0.156563   
N38      N      0.993240000000     0.699360000000     0.981740000000    -0.157102   
N39      N      0.985910000000     0.198490000000     0.999090000000    -0.156325   
N40      N      0.001710000000     0.304890000000     0.979440000000    -0.156572   
N41      N      0.806270000000     0.989510000000     0.013810000000    -0.155869   
N42      N      0.698590000000     0.007800000000     0.013740000000    -0.155559   
N43      N      0.200370000000     0.005660000000     0.018660000000    -0.155681   
N44      N      0.306560000000     0.002560000000     0.042220000000    -0.15656    
N45      N      0.006490000000     0.985490000000     0.701030000000    -0.156623   
N46      N      0.007960000000     0.002290000000     0.808940000000    -0.156272   
N47      N      0.016600000000     0.002270000000     0.202370000000    -0.156904   
N48      N      0.992170000000     0.001110000000     0.308230000000    -0.156347   
O1       O      0.003280000000     0.002770000000     0.005980000000    -0.370267   
O2       O      0.121290000000     0.043220000000     0.034100000000    -0.300598   
O3       O      0.034620000000     0.886130000000     0.970250000000    -0.303412   
O4       O      0.988900000000     0.966410000000     0.126220000000    -0.304286   
O5       O      0.124940000000     0.970170000000     0.988430000000    -0.302955   
O6       O      0.030860000000     0.041710000000     0.123970000000    -0.302228   
O7       O      0.975540000000     0.883110000000     0.032880000000    -0.303165   
O8       O      0.881020000000     0.015830000000     0.974570000000    -0.3026     
O9       O      0.045830000000     0.982770000000     0.887170000000    -0.300095   
O10      O      0.886190000000     0.973600000000     0.049680000000    -0.29941    
O11      O      0.968750000000     0.021310000000     0.886000000000    -0.304286   
O12      O      0.960180000000     0.117540000000     0.970740000000    -0.299317   
O13      O      0.023130000000     0.124030000000     0.029200000000    -0.306489   
O14      O      0.998270000000     0.993940000000     0.504480000000    -0.373943   
O15      O      0.977910000000     0.038610000000     0.387620000000    -0.301593   
O16      O      0.115220000000     0.967790000000     0.457840000000    -0.301406   
O17      O      0.039070000000     0.109650000000     0.533650000000    -0.299603   
O18      O      0.011890000000     0.959390000000     0.383980000000    -0.303134   
O19      O      0.963890000000     0.113490000000     0.491020000000    -0.3013     
O20      O      0.119790000000     0.009920000000     0.532870000000    -0.306907   
O21      O      0.968150000000     0.963560000000     0.623990000000    -0.302614   
O22      O      0.030120000000     0.875880000000     0.478460000000    -0.303253   
O23      O      0.037080000000     0.015260000000     0.623290000000    -0.302302   
O24      O      0.959530000000     0.876430000000     0.528370000000    -0.300177   
O25      O      0.878070000000     0.972580000000     0.537740000000    -0.305815   
O26      O      0.879160000000     0.020060000000     0.465830000000    -0.30018    
O27      O      0.000190000000     0.502280000000     0.987150000000    -0.367581   
O28      O      0.878260000000     0.474280000000     0.961890000000    -0.303378   
O29      O      0.973310000000     0.531930000000     0.108240000000    -0.305096   
O30      O      0.031490000000     0.382320000000     0.011470000000    -0.303898   
O31      O      0.882770000000     0.535060000000     0.022630000000    -0.305409   
O32      O      0.967230000000     0.383100000000     0.954250000000    -0.302308   
O33      O      0.029020000000     0.466450000000     0.106240000000    -0.303394   
O34      O      0.120360000000     0.534610000000     0.957590000000    -0.30092    
O35      O      0.970550000000     0.621540000000     0.017780000000    -0.306082   
O36      O      0.120130000000     0.473060000000     0.017920000000    -0.301881   
O37      O      0.027470000000     0.622160000000     0.953270000000    -0.302862   
O38      O      0.030030000000     0.530230000000     0.866720000000    -0.302188   
O39      O      0.963850000000     0.475250000000     0.868430000000    -0.303018   
O40      O      0.000590000000     0.492230000000     0.488100000000    -0.369367   
O41      O      0.965790000000     0.371620000000     0.513800000000    -0.303365   
O42      O      0.032620000000     0.464060000000     0.370430000000    -0.301099   
O43      O      0.882970000000     0.525260000000     0.454650000000    -0.305853   
O44      O      0.033700000000     0.370370000000     0.461080000000    -0.302541   
O45      O      0.879110000000     0.459530000000     0.510400000000    -0.302438   
O46      O      0.979060000000     0.531980000000     0.371530000000    -0.301404   
O47      O      0.031020000000     0.611250000000     0.525120000000    -0.306163   
O48      O      0.120470000000     0.458750000000     0.459670000000    -0.306123   
O49      O      0.965000000000     0.615020000000     0.470340000000    -0.303315   
O50      O      0.120570000000     0.529830000000     0.508230000000    -0.306224   
O51      O      0.037380000000     0.513730000000     0.605170000000    -0.302572   
O52      O      0.969560000000     0.460110000000     0.605520000000    -0.29977    
O53      O      0.501490000000     0.011340000000     0.014310000000    -0.37057    
O54      O      0.526520000000     0.047270000000     0.133400000000    -0.300323   
O55      O      0.387210000000     0.965910000000     0.050610000000    -0.299145   
O56      O      0.463360000000     0.129350000000     0.993910000000    -0.303342   
O57      O      0.486070000000     0.971000000000     0.133140000000    -0.301288   
O58      O      0.539040000000     0.130740000000     0.035310000000    -0.300056   
O59      O      0.378580000000     0.040770000000     0.008560000000    -0.303961   
O60      O      0.528720000000     0.005840000000     0.891610000000    -0.304214   
O61      O      0.488260000000     0.889050000000     0.037550000000    -0.304942   
O62      O      0.450810000000     0.041730000000     0.900650000000    -0.298005   
O63      O      0.530750000000     0.898120000000     0.962830000000    -0.298262   
O64      O      0.620490000000     0.989660000000     0.975830000000    -0.301237   
O65      O      0.621630000000     0.033100000000     0.050400000000    -0.299989   
O66      O      0.495930000000     0.002660000000     0.516670000000    -0.373734   
O67      O      0.374480000000     0.980090000000     0.541920000000    -0.305467   
O68      O      0.462060000000     0.122070000000     0.500720000000    -0.302146   
O69      O      0.529070000000     0.026870000000     0.636580000000    -0.30276    
O70      O      0.379970000000     0.029080000000     0.471160000000    -0.302246   
O71      O      0.456890000000     0.979960000000     0.636150000000    -0.301082   
O72      O      0.534950000000     0.118060000000     0.546970000000    -0.301914   
O73      O      0.612990000000     0.981200000000     0.471050000000    -0.300403   
O74      O      0.481750000000     0.045910000000     0.398430000000    -0.301253   
O75      O      0.617260000000     0.022080000000     0.546820000000    -0.305618   
O76      O      0.510610000000     0.964630000000     0.396830000000    -0.299892   
O77      O      0.532110000000     0.884550000000     0.497330000000    -0.299297   
O78      O      0.460890000000     0.885780000000     0.546550000000    -0.299213   
O79      O      0.501160000000     0.508380000000     0.998560000000    -0.37077    
O80      O      0.481480000000     0.628610000000     0.959500000000    -0.299429   
O81      O      0.519710000000     0.540630000000     0.119160000000    -0.303748   
O82      O      0.381650000000     0.483750000000     0.032300000000    -0.300808   
O83      O      0.533640000000     0.626550000000     0.028200000000    -0.304562   
O84      O      0.382770000000     0.546770000000     0.973410000000    -0.30102    
O85      O      0.477200000000     0.465550000000     0.116050000000    -0.299346   
O86      O      0.533220000000     0.390760000000     0.963860000000    -0.3033     
O87      O      0.619470000000     0.533340000000     0.040600000000    -0.30144    
O88      O      0.463300000000     0.387820000000     0.014150000000    -0.301715   
O89      O      0.620560000000     0.475760000000     0.976700000000    -0.309034   
O90      O      0.541020000000     0.488110000000     0.879680000000    -0.302462   
O91      O      0.466410000000     0.531290000000     0.879120000000    -0.303732   
O92      O      0.500290000000     0.501560000000     0.499040000000    -0.370421   
O93      O      0.381280000000     0.539070000000     0.471480000000    -0.303878   
O94      O      0.464300000000     0.382780000000     0.532270000000    -0.304213   
O95      O      0.515620000000     0.463300000000     0.380510000000    -0.299099   
O96      O      0.379980000000     0.470400000000     0.523410000000    -0.308495   
O97      O      0.473060000000     0.538840000000     0.382750000000    -0.300466   
O98      O      0.529350000000     0.378520000000     0.476320000000    -0.304884   
O99      O      0.622290000000     0.530350000000     0.517600000000    -0.305073   
O100     O      0.465860000000     0.478170000000     0.616690000000    -0.30313    
O101     O      0.616340000000     0.463920000000     0.462780000000    -0.301991   
O102     O      0.540860000000     0.521340000000     0.616090000000    -0.299934   
O103     O      0.537720000000     0.620500000000     0.532490000000    -0.300053   
O104     O      0.469830000000     0.624570000000     0.479800000000    -0.303806   
Zn1      Zn     0.043670000000     0.051720000000     0.046780000000     0.452995   
Zn2      Zn     0.051110000000     0.962180000000     0.963710000000     0.45109    
Zn3      Zn     0.964090000000     0.958070000000     0.052600000000     0.451102   
Zn4      Zn     0.954520000000     0.038610000000     0.960710000000     0.450732   
Zn5      Zn     0.955770000000     0.040420000000     0.463320000000     0.449439   
Zn6      Zn     0.038000000000     0.950790000000     0.457390000000     0.452171   
Zn7      Zn     0.047050000000     0.031870000000     0.547230000000     0.454394   
Zn8      Zn     0.952320000000     0.952810000000     0.547690000000     0.453838   
Zn9      Zn     0.953410000000     0.459900000000     0.944520000000     0.451023   
Zn10     Zn     0.958820000000     0.546340000000     0.032900000000     0.456802   
Zn11     Zn     0.044110000000     0.457390000000     0.029550000000     0.4511     
Zn12     Zn     0.043840000000     0.545910000000     0.942550000000     0.448997   
Zn13     Zn     0.954520000000     0.447730000000     0.528770000000     0.44981    
Zn14     Zn     0.044820000000     0.446840000000     0.446240000000     0.451664   
Zn15     Zn     0.958610000000     0.540100000000     0.447060000000     0.452862   
Zn16     Zn     0.046210000000     0.535150000000     0.530380000000     0.455191   
Zn17     Zn     0.546020000000     0.054860000000     0.057220000000     0.448117   
Zn18     Zn     0.466430000000     0.960590000000     0.057570000000     0.451686   
Zn19     Zn     0.449580000000     0.053800000000     0.979830000000     0.451171   
Zn20     Zn     0.544070000000     0.976930000000     0.962320000000     0.449416   
Zn21     Zn     0.448210000000     0.962970000000     0.559360000000     0.452149   
Zn22     Zn     0.456160000000     0.048900000000     0.472850000000     0.451812   
Zn23     Zn     0.543260000000     0.040880000000     0.560610000000     0.454842   
Zn24     Zn     0.536890000000     0.959000000000     0.471330000000     0.44813    
Zn25     Zn     0.458750000000     0.552620000000     0.954020000000     0.449514   
Zn26     Zn     0.542340000000     0.551170000000     0.045210000000     0.45323    
Zn27     Zn     0.457040000000     0.462210000000     0.039210000000     0.448566   
Zn28     Zn     0.547370000000     0.467400000000     0.955410000000     0.456578   
Zn29     Zn     0.457880000000     0.550060000000     0.459280000000     0.451367   
Zn30     Zn     0.454050000000     0.459800000000     0.541610000000     0.456736   
Zn31     Zn     0.539110000000     0.453220000000     0.455400000000     0.450995   
Zn32     Zn     0.548950000000     0.542490000000     0.540260000000     0.450121   


