data_structure

_audit_creation_method RASPA-1.0
_audit_creation_date 2023-5-19
_audit_author_name 'Poobodin Mano'

_cell_length_a    25.6511
_cell_length_b    25.7326
_cell_length_c    25.5529
_cell_angle_alpha 90
_cell_angle_beta  90
_cell_angle_gamma 90
_cell_volume      16866.7

_symmetry_cell_setting          triclinic
_symmetry_space_group_name_Hall 'P 1'
_symmetry_space_group_name_H-M  'P 1'
_symmetry_Int_Tables_number     1

_symmetry_equiv_pos_as_xyz 'x,y,z'

loop_
_atom_site_label
_atom_site_type_symbol
_atom_site_fract_x
_atom_site_fract_y
_atom_site_fract_z
_atom_site_charge
Br1      Br     0.381450000000     0.499110000000     0.825840000000    -0.190934   
Br2      Br     0.534310000000     0.388970000000     0.209930000000    -0.211386   
Br3      Br     0.613860000000     0.828570000000     0.534740000000    -0.200979   
Br4      Br     0.385600000000     0.199010000000     0.546570000000    -0.213002   
Br5      Br     0.624750000000     0.805640000000     0.019930000000    -0.215816   
Br6      Br     0.407140000000     0.181310000000     0.046230000000    -0.1897     
Br7      Br     0.474170000000     0.889180000000     0.816190000000    -0.214811   
Br8      Br     0.465310000000     0.109720000000     0.182540000000    -0.195223   
Br9      Br     0.819420000000     0.619580000000     0.524270000000    -0.2221     
Br10     Br     0.185980000000     0.617730000000     0.465380000000    -0.215918   
Br11     Br     0.810810000000     0.490350000000     0.885520000000    -0.20951    
Br12     Br     0.319120000000     0.425560000000     0.937290000000    -0.190878   
Br13     Br     0.007130000000     0.380950000000     0.814890000000    -0.209715   
Br14     Br     0.011390000000     0.374640000000     0.196310000000    -0.205418   
Br15     Br     0.100610000000     0.820530000000     0.537260000000    -0.218397   
Br16     Br     0.879950000000     0.191220000000     0.518770000000    -0.214362   
Br17     Br     0.683230000000     0.972670000000     0.604190000000    -0.193      
Br18     Br     0.180530000000     0.116350000000     0.454770000000    -0.205336   
Br19     Br     0.051480000000     0.808830000000     0.108380000000    -0.21926    
Br20     Br     0.082920000000     0.183600000000     0.920180000000    -0.185587   
Br21     Br     0.823840000000     0.984230000000     0.123470000000    -0.211884   
Br22     Br     0.199530000000     0.113800000000     0.972160000000    -0.178319   
Br23     Br     0.886720000000     0.979450000000     0.801130000000    -0.209515   
Br24     Br     0.021650000000     0.116760000000     0.304600000000    -0.199585   
C1       C      0.025770000000     0.003270000000     0.134610000000     0.365307   
C2       C      0.152080000000     0.000050000000     0.983800000000     0.376548   
C3       C      0.021710000000     0.849200000000     0.994750000000     0.37719    
C4       C      0.001560000000     0.991950000000     0.846950000000     0.376666   
C5       C      0.989960000000     0.135110000000     0.981490000000     0.373427   
C6       C      0.865880000000     0.972570000000     0.007880000000     0.373532   
C7       C      0.998000000000     0.003380000000     0.345850000000     0.373685   
C8       C      0.138270000000     0.003070000000     0.477370000000     0.382486   
C9       C      0.988890000000     0.145180000000     0.489130000000     0.383393   
C10      C      0.998760000000     0.013490000000     0.633520000000     0.361812   
C11      C      0.992010000000     0.860340000000     0.501500000000     0.379344   
C12      C      0.847980000000     0.999300000000     0.487100000000     0.366465   
C13      C      0.988970000000     0.349310000000     0.989380000000     0.367721   
C14      C      0.989000000000     0.484490000000     0.147900000000     0.376498   
C15      C      0.145250000000     0.485430000000     0.025660000000     0.362911   
C16      C      0.006550000000     0.636960000000     0.004360000000     0.363885   
C17      C      0.862100000000     0.506580000000     0.995720000000     0.376712   
C18      C      0.023550000000     0.491820000000     0.860900000000     0.385998   
C19      C      0.999770000000     0.355890000000     0.510310000000     0.368904   
C20      C      0.998740000000     0.495130000000     0.362340000000     0.359478   
C21      C      0.859890000000     0.505660000000     0.511850000000     0.382871   
C22      C      0.999190000000     0.646440000000     0.509350000000     0.368388   
C23      C      0.146710000000     0.505020000000     0.491830000000     0.37976    
C24      C      0.012780000000     0.498660000000     0.647360000000     0.364792   
C25      C      0.364260000000     0.997880000000     0.007280000000     0.368506   
C26      C      0.514830000000     0.139680000000     0.007940000000     0.382955   
C27      C      0.499020000000     0.997850000000     0.147370000000     0.375379   
C28      C      0.653910000000     0.993640000000     0.007170000000     0.361886   
C29      C      0.501920000000     0.998940000000     0.860820000000     0.375708   
C30      C      0.514100000000     0.852370000000     0.998950000000     0.382223   
C31      C      0.477990000000     0.010120000000     0.360680000000     0.35904    
C32      C      0.346190000000     0.008660000000     0.505650000000     0.364598   
C33      C      0.503390000000     0.866640000000     0.499320000000     0.379515   
C34      C      0.484030000000     0.002950000000     0.646270000000     0.365164   
C35      C      0.493920000000     0.154740000000     0.512440000000     0.377099   
C36      C      0.633730000000     0.014160000000     0.499480000000     0.376255   
C37      C      0.359760000000     0.495100000000     0.026030000000     0.380379   
C38      C      0.506680000000     0.638800000000     0.011870000000     0.361041   
C39      C      0.508780000000     0.497840000000     0.160690000000     0.377512   
C40      C      0.649480000000     0.498000000000     0.011540000000     0.365975   
C41      C      0.496430000000     0.491540000000     0.871980000000     0.379017   
C42      C      0.510910000000     0.353660000000     0.019930000000     0.367541   
C43      C      0.359130000000     0.512960000000     0.508990000000     0.365467   
C44      C      0.500670000000     0.365890000000     0.535990000000     0.364358   
C45      C      0.508980000000     0.504330000000     0.376980000000     0.360318   
C46      C      0.647250000000     0.508390000000     0.508880000000     0.367791   
C47      C      0.501820000000     0.518910000000     0.661550000000     0.359642   
C48      C      0.505750000000     0.655290000000     0.521630000000     0.36454    
C49      C      0.547760000000     0.524880000000     0.746280000000    -0.0157076  
C50      C      0.449850000000     0.528410000000     0.742470000000    -0.0473631  
C51      C      0.544320000000     0.483620000000     0.789380000000    -0.0110116  
C52      C      0.446590000000     0.489210000000     0.787310000000     0.111874   
C53      C      0.520370000000     0.552510000000     0.294380000000    -0.0150361  
C54      C      0.532290000000     0.455860000000     0.297330000000    -0.046135   
C55      C      0.495740000000     0.547970000000     0.240150000000    -0.0117005  
C56      C      0.504320000000     0.450020000000     0.244780000000     0.112271   
C57      C      0.454580000000     0.736230000000     0.517120000000    -0.0152685  
C58      C      0.549490000000     0.738780000000     0.541630000000    -0.0460324  
C59      C      0.462340000000     0.783040000000     0.481560000000    -0.00964156 
C60      C      0.557740000000     0.785960000000     0.505300000000     0.11128    
C61      C      0.549900000000     0.283420000000     0.541010000000    -0.0136689  
C62      C      0.453790000000     0.284900000000     0.558160000000    -0.0451357  
C63      C      0.543630000000     0.235230000000     0.506640000000    -0.0117595  
C64      C      0.445860000000     0.238460000000     0.521080000000     0.111711   
C65      C      0.459240000000     0.721830000000     0.009830000000    -0.0149569  
C66      C      0.556250000000     0.719440000000     0.026220000000    -0.0461278  
C67      C      0.466050000000     0.772920000000     0.980290000000    -0.0109613  
C68      C      0.563160000000     0.768930000000     0.993510000000     0.11311    
C69      C      0.565400000000     0.274530000000     0.021350000000    -0.015089   
C70      C      0.470620000000     0.270740000000     0.045130000000    -0.0468835  
C71      C      0.561080000000     0.221160000000     0.995060000000    -0.00998654 
C72      C      0.463900000000     0.220890000000     0.013510000000     0.114259   
C73      C      0.477130000000     0.051830000000     0.728950000000    -0.0138085  
C74      C      0.465150000000     0.955130000000     0.727850000000    -0.0440964  
C75      C      0.508240000000     0.047790000000     0.779710000000    -0.0116795  
C76      C      0.499130000000     0.949810000000     0.777080000000     0.112306   
C77      C      0.468260000000     0.955010000000     0.282140000000    -0.0137523  
C78      C      0.456390000000     0.051210000000     0.275900000000    -0.0451233  
C79      C      0.500870000000     0.954960000000     0.232170000000    -0.0120256  
C80      C      0.491170000000     0.053100000000     0.226880000000     0.110019   
C81      C      0.728580000000     0.463750000000     0.484100000000    -0.0149208  
C82      C      0.727860000000     0.560200000000     0.501580000000    -0.047777   
C83      C      0.777870000000     0.458490000000     0.517140000000    -0.00943651 
C84      C      0.779380000000     0.555170000000     0.531250000000     0.114018   
C85      C      0.276440000000     0.466800000000     0.522710000000    -0.0152431  
C86      C      0.277560000000     0.562020000000     0.497380000000    -0.0481816  
C87      C      0.229530000000     0.458610000000     0.486940000000    -0.0094762  
C88      C      0.227100000000     0.553630000000     0.466320000000     0.113293   
C89      C      0.734780000000     0.501150000000     0.056000000000    -0.0156102  
C90      C      0.728500000000     0.482540000000     0.959110000000    -0.0462545  
C91      C      0.784930000000     0.531550000000     0.045970000000    -0.00992778 
C92      C      0.776900000000     0.516090000000     0.949230000000     0.112272   
C93      C      0.224940000000     0.500280000000     0.079110000000    -0.0161733  
C94      C      0.228460000000     0.446660000000     0.997020000000    -0.0485659  
C95      C      0.278550000000     0.523380000000     0.065570000000    -0.00992257 
C96      C      0.278610000000     0.473920000000     0.980370000000     0.113566   
C97      C      0.019050000000     0.546420000000     0.730170000000    -0.0153368  
C98      C      0.999230000000     0.450040000000     0.728770000000    -0.0488143  
C99      C      0.047950000000     0.539080000000     0.781880000000    -0.00835711 
C100     C      0.032760000000     0.442570000000     0.777700000000     0.115727   
C101     C      0.995010000000     0.540590000000     0.277630000000    -0.0168312  
C102     C      0.015150000000     0.444640000000     0.281980000000    -0.045572   
C103     C      0.964610000000     0.531350000000     0.227230000000    -0.00977668 
C104     C      0.982680000000     0.435530000000     0.232280000000     0.111214   
C105     C      0.943710000000     0.724400000000     0.514700000000    -0.017615   
C106     C      0.039200000000     0.729080000000     0.535800000000    -0.0468185  
C107     C      0.946200000000     0.779040000000     0.491030000000    -0.0098598  
C108     C      0.043810000000     0.780200000000     0.505880000000     0.115244   
C109     C      0.046380000000     0.272080000000     0.508840000000    -0.0122929  
C110     C      0.950380000000     0.275650000000     0.528800000000    -0.0462066  
C111     C      0.037260000000     0.225090000000     0.473890000000    -0.0124559  
C112     C      0.940650000000     0.229300000000     0.492260000000     0.113048   
C113     C      0.763860000000     0.003610000000     0.439280000000    -0.0146884  
C114     C      0.767000000000     0.974220000000     0.532800000000    -0.046488   
C115     C      0.713620000000     0.033680000000     0.450870000000    -0.0110973  
C116     C      0.719070000000     0.007280000000     0.545940000000     0.112713   
C117     C      0.263130000000     0.960750000000     0.515770000000    -0.0153088  
C118     C      0.263400000000     0.057920000000     0.502820000000    -0.0505194  
C119     C      0.221070000000     0.955600000000     0.473330000000    -0.0118849  
C120     C      0.221110000000     0.052220000000     0.461220000000     0.115682   
C121     C      0.989570000000     0.718940000000     0.957000000000    -0.0175221  
C122     C      0.012830000000     0.719830000000     0.053030000000    -0.0482231  
C123     C      0.025100000000     0.765930000000     0.948260000000    -0.00952489 
C124     C      0.046150000000     0.768300000000     0.043730000000     0.11405    
C125     C      0.932560000000     0.270740000000     0.981970000000    -0.0140313  
C126     C      0.022140000000     0.271190000000     0.944640000000    -0.0465823  
C127     C      0.939480000000     0.213370000000     0.998310000000    -0.0125129  
C128     C      0.034320000000     0.218220000000     0.968030000000     0.112288   
C129     C      0.737220000000     0.990160000000     0.958840000000    -0.0131322  
C130     C      0.736690000000     0.001520000000     0.056830000000    -0.0457809  
C131     C      0.783290000000     0.953120000000     0.963910000000    -0.0122826  
C132     C      0.783740000000     0.964320000000     0.061370000000     0.111525   
C133     C      0.279690000000     0.954160000000     0.022150000000    -0.0146006  
C134     C      0.283910000000     0.050740000000     0.007610000000    -0.0485755  
C135     C      0.233850000000     0.950770000000     0.983830000000    -0.0112081  
C136     C      0.236650000000     0.047440000000     0.971290000000     0.111363   
C137     C      0.044840000000     0.031760000000     0.716890000000    -0.0153286  
C138     C      0.948130000000     0.016860000000     0.715740000000    -0.0481755  
C139     C      0.049670000000     0.994820000000     0.763910000000    -0.0103694  
C140     C      0.952850000000     0.980530000000     0.762790000000     0.113014   
C141     C      0.037920000000     0.956210000000     0.217760000000    -0.013042   
C142     C      0.040610000000     0.053280000000     0.216190000000    -0.0444015  
C143     C      0.999120000000     0.957000000000     0.262650000000    -0.0131694  
C144     C      0.002610000000     0.055550000000     0.263030000000     0.1113     
H1       H      0.447580000000     0.568150000000     0.759430000000     0.0716117  
H2       H      0.551350000000     0.563760000000     0.764940000000     0.0547806  
H3       H      0.579200000000     0.487150000000     0.815060000000     0.0526684  
H4       H      0.415840000000     0.523510000000     0.715910000000     0.0740354  
H5       H      0.443420000000     0.450100000000     0.769040000000     0.0411064  
H6       H      0.583300000000     0.517680000000     0.722400000000     0.0542961  
H7       H      0.544890000000     0.444510000000     0.770870000000     0.0523432  
H8       H      0.575080000000     0.457940000000     0.290410000000     0.0717701  
H9       H      0.562470000000     0.561490000000     0.289220000000     0.0499665  
H10      H      0.507500000000     0.582220000000     0.216320000000     0.0506392  
H11      H      0.524210000000     0.420700000000     0.321370000000     0.0742856  
H12      H      0.462390000000     0.442010000000     0.252330000000     0.0398681  
H13      H      0.502490000000     0.585930000000     0.315330000000     0.0526925  
H14      H      0.452680000000     0.549960000000     0.244870000000     0.0475674  
H15      H      0.542220000000     0.753000000000     0.582090000000     0.0748724  
H16      H      0.440910000000     0.750580000000     0.555810000000     0.0543286  
H17      H      0.425830000000     0.806400000000     0.480540000000     0.0503159  
H18      H      0.585640000000     0.714870000000     0.542080000000     0.073388   
H19      H      0.571050000000     0.771320000000     0.466590000000     0.0367116  
H20      H      0.423310000000     0.711060000000     0.500800000000     0.0540407  
H21      H      0.469430000000     0.768490000000     0.441200000000     0.047942   
H22      H      0.458470000000     0.270160000000     0.598820000000     0.0718791  
H23      H      0.559810000000     0.270160000000     0.581220000000     0.0512536  
H24      H      0.578240000000     0.209620000000     0.511740000000     0.0521608  
H25      H      0.418610000000     0.310190000000     0.556840000000     0.0726471  
H26      H      0.436090000000     0.253690000000     0.481550000000     0.0404029  
H27      H      0.583230000000     0.307070000000     0.526590000000     0.0527905  
H28      H      0.543270000000     0.248090000000     0.465090000000     0.0518723  
H29      H      0.553760000000     0.730210000000     0.068320000000     0.071528   
H30      H      0.447450000000     0.731100000000     0.050660000000     0.0500076  
H31      H      0.431000000000     0.797670000000     0.986550000000     0.0532845  
H32      H      0.591250000000     0.694420000000     0.020840000000     0.0724303  
H33      H      0.570970000000     0.757440000000     0.952290000000     0.0412403  
H34      H      0.426800000000     0.699470000000     0.991770000000     0.0546627  
H35      H      0.467930000000     0.763880000000     0.937760000000     0.0562464  
H36      H      0.478760000000     0.260570000000     0.086670000000     0.0846008  
H37      H      0.580150000000     0.268540000000     0.061820000000     0.0576391  
H38      H      0.597120000000     0.198450000000     0.003140000000     0.0516465  
H39      H      0.433440000000     0.293010000000     0.043700000000     0.0829954  
H40      H      0.451620000000     0.231290000000     0.973100000000     0.0427011  
H41      H      0.594940000000     0.298220000000     0.000250000000     0.055367   
H42      H      0.559350000000     0.227330000000     0.952020000000     0.0486589  
H43      H      0.423480000000     0.957390000000     0.739740000000     0.0727009  
H44      H      0.435880000000     0.060230000000     0.739330000000     0.0544265  
H45      H      0.499740000000     0.082310000000     0.804530000000     0.053255   
H46      H      0.470370000000     0.919960000000     0.703040000000     0.075586   
H47      H      0.539940000000     0.941950000000     0.764690000000     0.0452698  
H48      H      0.491730000000     0.085330000000     0.705700000000     0.0572403  
H49      H      0.550390000000     0.049330000000     0.769630000000     0.0540566  
H50      H      0.414970000000     0.047490000000     0.263540000000     0.0741093  
H51      H      0.427180000000     0.946630000000     0.271100000000     0.0502255  
H52      H      0.492680000000     0.918740000000     0.209840000000     0.0526401  
H53      H      0.460780000000     0.088210000000     0.298010000000     0.0748016  
H54      H      0.531520000000     0.063120000000     0.239200000000     0.0405926  
H55      H      0.481510000000     0.922990000000     0.308170000000     0.0521129  
H56      H      0.542690000000     0.953750000000     0.243570000000     0.0518234  
H57      H      0.736680000000     0.571410000000     0.460490000000     0.0706784  
H58      H      0.739960000000     0.467990000000     0.442320000000     0.0532406  
H59      H      0.801440000000     0.425260000000     0.502290000000     0.0487942  
H60      H      0.704240000000     0.592020000000     0.519060000000     0.074      
H61      H      0.769670000000     0.551490000000     0.573510000000     0.0380972  
H62      H      0.705070000000     0.427650000000     0.488260000000     0.0529507  
H63      H      0.766570000000     0.450140000000     0.558320000000     0.0531177  
H64      H      0.267230000000     0.578300000000     0.536340000000     0.0725469  
H65      H      0.262380000000     0.472840000000     0.563440000000     0.0569907  
H66      H      0.206030000000     0.425400000000     0.501920000000     0.0514048  
H67      H      0.302050000000     0.591450000000     0.477050000000     0.0715433  
H68      H      0.238740000000     0.546540000000     0.425000000000     0.0355585  
H69      H      0.300860000000     0.431050000000     0.522030000000     0.0546887  
H70      H      0.243680000000     0.448810000000     0.446990000000     0.0527859  
H71      H      0.740570000000     0.441110000000     0.962060000000     0.0725742  
H72      H      0.745650000000     0.461150000000     0.068330000000     0.0540955  
H73      H      0.811450000000     0.527270000000     0.080190000000     0.0498718  
H74      H      0.701880000000     0.486390000000     0.924930000000     0.0726636  
H75      H      0.763850000000     0.556620000000     0.941720000000     0.037718   
H76      H      0.713390000000     0.519370000000     0.089100000000     0.0551668  
H77      H      0.774560000000     0.573400000000     0.042960000000     0.0490986  
H78      H      0.238670000000     0.410330000000     0.018310000000     0.0790316  
H79      H      0.231130000000     0.467370000000     0.106620000000     0.0557771  
H80      H      0.301710000000     0.528330000000     0.102090000000     0.0454936  
H81      H      0.206570000000     0.435610000000     0.961150000000     0.0813083  
H82      H      0.268390000000     0.508160000000     0.955860000000     0.0435899  
H83      H      0.201450000000     0.530050000000     0.100040000000     0.0552308  
H84      H      0.272370000000     0.562740000000     0.048670000000     0.0479525  
H85      H      0.957640000000     0.453860000000     0.740580000000     0.0791626  
H86      H      0.978990000000     0.560340000000     0.739140000000     0.0558548  
H87      H      0.042230000000     0.574020000000     0.806940000000     0.049707   
H88      H      0.002990000000     0.414980000000     0.703500000000     0.0746547  
H89      H      0.073520000000     0.434760000000     0.765120000000     0.0394559  
H90      H      0.038630000000     0.577450000000     0.707120000000     0.0556144  
H91      H      0.090310000000     0.536210000000     0.773080000000     0.0504539  
H92      H      0.056930000000     0.448390000000     0.270920000000     0.0743581  
H93      H      0.035030000000     0.553390000000     0.266960000000     0.0553302  
H94      H      0.967840000000     0.566270000000     0.201730000000     0.0505899  
H95      H      0.011170000000     0.410070000000     0.307850000000     0.0747525  
H96      H      0.942090000000     0.426140000000     0.244280000000     0.0375801  
H97      H      0.976430000000     0.572910000000     0.299680000000     0.0562541  
H98      H      0.922760000000     0.526860000000     0.237670000000     0.0480609  
H99      H      0.032320000000     0.737500000000     0.577950000000     0.0744044  
H100     H      0.929760000000     0.728020000000     0.555740000000     0.0589966  
H101     H      0.910230000000     0.800790000000     0.501770000000     0.0535625  
H102     H      0.076610000000     0.707440000000     0.532140000000     0.0817084  
H103     H      0.054620000000     0.771540000000     0.464620000000     0.0426517  
H104     H      0.914230000000     0.701090000000     0.493100000000     0.0683187  
H105     H      0.946220000000     0.775100000000     0.447670000000     0.0503727  
H106     H      0.955090000000     0.261070000000     0.569520000000     0.0738242  
H107     H      0.057490000000     0.257810000000     0.548380000000     0.0564701  
H108     H      0.071990000000     0.199200000000     0.475520000000     0.0688062  
H109     H      0.915720000000     0.301630000000     0.527760000000     0.0731272  
H110     H      0.930740000000     0.244560000000     0.452780000000     0.0409321  
H111     H      0.079750000000     0.294990000000     0.493370000000     0.0582149  
H112     H      0.033570000000     0.239070000000     0.432870000000     0.0617247  
H113     H      0.754010000000     0.934040000000     0.523330000000     0.078554   
H114     H      0.752840000000     0.964990000000     0.423180000000     0.0550166  
H115     H      0.687940000000     0.032360000000     0.415810000000     0.0542373  
H116     H      0.792260000000     0.972190000000     0.568120000000     0.0794487  
H117     H      0.732610000000     0.045930000000     0.559890000000     0.0418506  
H118     H      0.786230000000     0.024410000000     0.408480000000     0.0587877  
H119     H      0.724270000000     0.075100000000     0.457190000000     0.0534273  
H120     H      0.244160000000     0.066100000000     0.540940000000     0.0761965  
H121     H      0.243630000000     0.962550000000     0.554590000000     0.0565214  
H122     H      0.196060000000     0.921390000000     0.482320000000     0.0611653  
H123     H      0.288760000000     0.091690000000     0.493340000000     0.0845515  
H124     H      0.241580000000     0.047780000000     0.423090000000     0.0400022  
H125     H      0.288340000000     0.925600000000     0.514860000000     0.0554992  
H126     H      0.240560000000     0.948820000000     0.435050000000     0.0527118  
H127     H      0.973790000000     0.732460000000     0.067050000000     0.0712175  
H128     H      0.948940000000     0.732990000000     0.962500000000     0.0554843  
H129     H      0.009720000000     0.789100000000     0.914860000000     0.0519782  
H130     H      0.030750000000     0.695990000000     0.084570000000     0.073269   
H131     H      0.086420000000     0.754350000000     0.035740000000     0.0346707  
H132     H      0.990560000000     0.694290000000     0.921260000000     0.0547085  
H133     H      0.064750000000     0.751820000000     0.937840000000     0.0500855  
H134     H      0.006440000000     0.265760000000     0.904400000000     0.0827182  
H135     H      0.912360000000     0.271470000000     0.943470000000     0.0559166  
H136     H      0.903620000000     0.191330000000     0.987930000000     0.0544365  
H137     H      0.059200000000     0.293350000000     0.941320000000     0.0864208  
H138     H      0.054290000000     0.223740000000     0.006280000000     0.0499853  
H139     H      0.906580000000     0.290430000000     0.010610000000     0.0583595  
H140     H      0.942570000000     0.212060000000     0.041720000000     0.0535918  
H141     H      0.751250000000     0.042230000000     0.056490000000     0.0720773  
H142     H      0.752700000000     0.029600000000     0.950200000000     0.0565636  
H143     H      0.807520000000     0.955130000000     0.927830000000     0.0636412  
H144     H      0.711510000000     0.996630000000     0.091940000000     0.075356   
H145     H      0.768340000000     0.924500000000     0.068180000000     0.042419   
H146     H      0.713000000000     0.978110000000     0.924860000000     0.0612875  
H147     H      0.767620000000     0.912900000000     0.966660000000     0.0584462  
H148     H      0.269870000000     0.060690000000     0.047560000000     0.0791168  
H149     H      0.263980000000     0.957520000000     0.062570000000     0.0550579  
H150     H      0.208370000000     0.917760000000     0.995610000000     0.0523924  
H151     H      0.309970000000     0.082780000000     0.994570000000     0.0868631  
H152     H      0.252060000000     0.043310000000     0.930810000000     0.0408685  
H153     H      0.302900000000     0.917740000000     0.019540000000     0.0531553  
H154     H      0.249350000000     0.942590000000     0.944020000000     0.0531518  
H155     H      0.939010000000     0.056510000000     0.730460000000     0.0748004  
H156     H      0.041630000000     0.072240000000     0.731780000000     0.0590847  
H157     H      0.082720000000     0.007920000000     0.788860000000     0.0559591  
H158     H      0.914960000000     0.004360000000     0.690700000000     0.0781721  
H159     H      0.957610000000     0.940550000000     0.746940000000     0.0390555  
H160     H      0.080760000000     0.028850000000     0.692670000000     0.0566182  
H161     H      0.058850000000     0.955190000000     0.749160000000     0.0538857  
H162     H      0.081300000000     0.054780000000     0.231190000000     0.0756339  
H163     H      0.077790000000     0.953650000000     0.234690000000     0.0562967  
H164     H      0.005150000000     0.921910000000     0.287340000000     0.0575989  
H165     H      0.034180000000     0.087730000000     0.190680000000     0.0766475  
H166     H      0.962630000000     0.061950000000     0.247520000000     0.0430131  
H167     H      0.031640000000     0.920820000000     0.193590000000     0.0663897  
H168     H      0.959220000000     0.954260000000     0.245840000000     0.0592551  
N1       N      0.495210000000     0.490170000000     0.818610000000    -0.16445    
N2       N      0.499910000000     0.523320000000     0.714690000000    -0.150286   
N3       N      0.508770000000     0.498540000000     0.214030000000    -0.16475    
N4       N      0.515740000000     0.503680000000     0.323940000000    -0.150717   
N5       N      0.507820000000     0.813860000000     0.498130000000    -0.165103   
N6       N      0.504030000000     0.708260000000     0.524570000000    -0.151338   
N7       N      0.494470000000     0.207530000000     0.517380000000    -0.163727   
N8       N      0.501120000000     0.313330000000     0.543370000000    -0.151597   
N9       N      0.514580000000     0.799580000000     0.995330000000    -0.164164   
N10      N      0.508100000000     0.691860000000     0.011550000000    -0.150578   
N11      N      0.513970000000     0.192470000000     0.011000000000    -0.16361    
N12      N      0.514580000000     0.300920000000     0.024540000000    -0.148147   
N13      N      0.498060000000     0.998690000000     0.807610000000    -0.162899   
N14      N      0.478790000000     0.002790000000     0.699440000000    -0.149216   
N15      N      0.492140000000     0.001890000000     0.200210000000    -0.16264    
N16      N      0.470140000000     0.006020000000     0.307970000000    -0.150536   
N17      N      0.807160000000     0.507470000000     0.515130000000    -0.16682    
N18      N      0.699690000000     0.510290000000     0.500700000000    -0.152272   
N19      N      0.199270000000     0.506900000000     0.485060000000    -0.165774   
N20      N      0.306040000000     0.512910000000     0.505880000000    -0.151002   
N21      N      0.809770000000     0.515460000000     0.996600000000    -0.165053   
N22      N      0.702650000000     0.497550000000     0.008390000000    -0.151218   
N23      N      0.306980000000     0.491620000000     0.027120000000    -0.164523   
N24      N      0.198030000000     0.480310000000     0.032280000000    -0.148554   
N25      N      0.031610000000     0.491080000000     0.808400000000    -0.166025   
N26      N      0.014880000000     0.497430000000     0.700620000000    -0.149561   
N27      N      0.982090000000     0.483600000000     0.200770000000    -0.165216   
N28      N      0.998990000000     0.492690000000     0.308910000000    -0.149892   
N29      N      0.993360000000     0.807800000000     0.506580000000    -0.165197   
N30      N      0.995090000000     0.698950000000     0.515440000000    -0.149399   
N31      N      0.988760000000     0.197990000000     0.488350000000    -0.163177   
N32      N      0.998420000000     0.303020000000     0.513510000000    -0.152386   
N33      N      0.686980000000     0.014640000000     0.498390000000    -0.162415   
N34      N      0.794710000000     0.995480000000     0.487110000000    -0.148858   
N35      N      0.190950000000     0.004170000000     0.470800000000    -0.165492   
N36      N      0.293010000000     0.009020000000     0.507530000000    -0.149891   
N37      N      0.027890000000     0.796570000000     0.996670000000    -0.165431   
N38      N      0.005820000000     0.690100000000     0.004180000000    -0.150518   
N39      N      0.986170000000     0.187780000000     0.976220000000    -0.161225   
N40      N      0.982720000000     0.297910000000     0.976400000000    -0.146395   
N41      N      0.813350000000     0.964430000000     0.011650000000    -0.162247   
N42      N      0.707310000000     0.992400000000     0.008020000000    -0.148437   
N43      N      0.205320000000     0.000460000000     0.983070000000    -0.163912   
N44      N      0.311180000000     0.000430000000     0.010270000000    -0.149678   
N45      N      0.000280000000     0.993060000000     0.793470000000    -0.163185   
N46      N      0.997730000000     0.019050000000     0.686720000000    -0.149182   
N47      N      0.003070000000     0.005800000000     0.292670000000    -0.161352   
N48      N      0.033660000000     0.004480000000     0.187400000000    -0.149227   
O1       O      0.008060000000     0.992600000000     0.991580000000    -0.369637   
O2       O      0.002140000000     0.964550000000     0.114800000000    -0.288481   
O3       O      0.127240000000     0.035450000000     0.008140000000    -0.272157   
O4       O      0.039080000000     0.874240000000     0.955400000000    -0.298259   
O5       O      0.043020000000     0.039970000000     0.105740000000    -0.289225   
O6       O      0.998480000000     0.872630000000     0.031880000000    -0.279604   
O7       O      0.127880000000     0.962910000000     0.961550000000    -0.297345   
O8       O      0.965410000000     0.013730000000     0.873270000000    -0.274658   
O9       O      0.030500000000     0.116060000000     0.002940000000    -0.278545   
O10      O      0.039640000000     0.969740000000     0.869920000000    -0.295668   
O11      O      0.953860000000     0.105730000000     0.963840000000    -0.286869   
O12      O      0.883280000000     0.998430000000     0.969120000000    -0.292298   
O13      O      0.896950000000     0.952740000000     0.041480000000    -0.274021   
O14      O      0.993530000000     0.002890000000     0.489520000000    -0.371557   
O15      O      0.971990000000     0.038170000000     0.369910000000    -0.277633   
O16      O      0.111990000000     0.966940000000     0.456020000000    -0.291731   
O17      O      0.026200000000     0.121800000000     0.512020000000    -0.290588   
O18      O      0.019000000000     0.965730000000     0.370660000000    -0.294908   
O19      O      0.953630000000     0.120180000000     0.464680000000    -0.274838   
O20      O      0.116110000000     0.037430000000     0.505310000000    -0.281279   
O21      O      0.962860000000     0.987370000000     0.611200000000    -0.29371    
O22      O      0.022930000000     0.882050000000     0.469320000000    -0.289808   
O23      O      0.034620000000     0.035460000000     0.606740000000    -0.290012   
O24      O      0.960070000000     0.886770000000     0.529000000000    -0.293585   
O25      O      0.873650000000     0.978080000000     0.523910000000    -0.298349   
O26      O      0.871630000000     0.023420000000     0.450490000000    -0.289834   
O27      O      0.003460000000     0.492800000000     0.004400000000    -0.37118    
O28      O      0.029860000000     0.372890000000     0.974240000000    -0.290177   
O29      O      0.968760000000     0.449080000000     0.119520000000    -0.279638   
O30      O      0.119060000000     0.517130000000     0.053930000000    -0.292316   
O31      O      0.953400000000     0.373980000000     0.014010000000    -0.286267   
O32      O      0.122650000000     0.457620000000     0.991240000000    -0.297616   
O33      O      0.013280000000     0.522610000000     0.127480000000    -0.298625   
O34      O      0.982690000000     0.612370000000     0.968400000000    -0.30033    
O35      O      0.882450000000     0.479800000000     0.032380000000    -0.298571   
O36      O      0.030130000000     0.612490000000     0.040780000000    -0.297031   
O37      O      0.890030000000     0.526920000000     0.959800000000    -0.277723   
O38      O      0.992770000000     0.525410000000     0.880320000000    -0.296046   
O39      O      0.047440000000     0.459460000000     0.889760000000    -0.285533   
O40      O      0.003270000000     0.501570000000     0.505010000000    -0.370905   
O41      O      0.964990000000     0.382390000000     0.533380000000    -0.302958   
O42      O      0.023460000000     0.460630000000     0.388290000000    -0.295101   
O43      O      0.883280000000     0.533670000000     0.478180000000    -0.284214   
O44      O      0.036060000000     0.378310000000     0.485020000000    -0.299513   
O45      O      0.884710000000     0.474820000000     0.541660000000    -0.301226   
O46      O      0.975010000000     0.532370000000     0.385470000000    -0.293425   
O47      O      0.033960000000     0.621870000000     0.534710000000    -0.292402   
O48      O      0.120920000000     0.469050000000     0.469520000000    -0.299692   
O49      O      0.967270000000     0.622310000000     0.479980000000    -0.288767   
O50      O      0.124480000000     0.537790000000     0.521780000000    -0.281184   
O51      O      0.039870000000     0.532010000000     0.622240000000    -0.295412   
O52      O      0.982500000000     0.467170000000     0.623700000000    -0.298564   
O53      O      0.508950000000     0.995990000000     0.004360000000    -0.370774   
O54      O      0.388470000000     0.961540000000     0.030830000000    -0.294919   
O55      O      0.478700000000     0.116510000000     0.983270000000    -0.28657    
O56      O      0.527050000000     0.031320000000     0.123660000000    -0.279012   
O57      O      0.389070000000     0.032520000000     0.981900000000    -0.288272   
O58      O      0.477350000000     0.960490000000     0.122580000000    -0.292541   
O59      O      0.550770000000     0.114230000000     0.030970000000    -0.290649   
O60      O      0.629490000000     0.975530000000     0.967630000000    -0.290688   
O61      O      0.477030000000     0.033190000000     0.886940000000    -0.295801   
O62      O      0.628980000000     0.013460000000     0.045540000000    -0.293155   
O63      O      0.531070000000     0.965700000000     0.883500000000    -0.281214   
O64      O      0.547840000000     0.878960000000     0.974070000000    -0.276413   
O65      O      0.478100000000     0.874350000000     0.025130000000    -0.299483   
O66      O      0.489930000000     0.010590000000     0.503360000000    -0.372422   
O67      O      0.505840000000     0.976080000000     0.383830000000    -0.298337   
O68      O      0.370160000000     0.045220000000     0.482140000000    -0.290223   
O69      O      0.463440000000     0.886810000000     0.520660000000    -0.299932   
O70      O      0.456640000000     0.047260000000     0.386180000000    -0.292241   
O71      O      0.537610000000     0.894970000000     0.477150000000    -0.279649   
O72      O      0.371220000000     0.971910000000     0.527670000000    -0.297351   
O73      O      0.510910000000     0.038570000000     0.624400000000    -0.289249   
O74      O      0.458690000000     0.132980000000     0.485010000000    -0.281305   
O75      O      0.461000000000     0.968130000000     0.619150000000    -0.290959   
O76      O      0.528540000000     0.127860000000     0.535810000000    -0.296355   
O77      O      0.609600000000     0.029830000000     0.540200000000    -0.277479   
O78      O      0.608660000000     0.998490000000     0.459370000000    -0.293693   
O79      O      0.504330000000     0.496490000000     0.016270000000    -0.371619   
O80      O      0.386280000000     0.468310000000     0.058280000000    -0.290281   
O81      O      0.469810000000     0.614820000000     0.988420000000    -0.294998   
O82      O      0.531790000000     0.533950000000     0.135520000000    -0.299122   
O83      O      0.381630000000     0.521630000000     0.990170000000    -0.284089   
O84      O      0.484410000000     0.461950000000     0.136770000000    -0.284621   
O85      O      0.541690000000     0.614030000000     0.037000000000    -0.299679   
O86      O      0.623160000000     0.474920000000     0.976440000000    -0.302469   
O87      O      0.466290000000     0.522150000000     0.896930000000    -0.274988   
O88      O      0.626660000000     0.520700000000     0.049540000000    -0.295509   
O89      O      0.529940000000     0.463920000000     0.896030000000    -0.298932   
O90      O      0.544170000000     0.378540000000     0.992530000000    -0.294574   
O91      O      0.474950000000     0.377510000000     0.044590000000    -0.287945   
O92      O      0.503290000000     0.510480000000     0.519310000000    -0.371014   
O93      O      0.385650000000     0.544490000000     0.481210000000    -0.297583   
O94      O      0.467140000000     0.393850000000     0.559730000000    -0.296784   
O95      O      0.526930000000     0.466710000000     0.404140000000    -0.298057   
O96      O      0.381460000000     0.482020000000     0.540670000000    -0.300223   
O97      O      0.486950000000     0.543300000000     0.398780000000    -0.297107   
O98      O      0.533800000000     0.386460000000     0.505320000000    -0.3003     
O99      O      0.625460000000     0.542670000000     0.537290000000    -0.300013   
O100     O      0.463840000000     0.497460000000     0.637470000000    -0.295938   
O101     O      0.620540000000     0.472940000000     0.486940000000    -0.302478   
O102     O      0.541340000000     0.536630000000     0.636820000000    -0.295113   
O103     O      0.538750000000     0.630170000000     0.548960000000    -0.295769   
O104     O      0.473770000000     0.631470000000     0.492060000000    -0.300291   
Zn1      Zn     0.976560000000     0.947050000000     0.043350000000     0.464335   
Zn2      Zn     0.050870000000     0.044760000000     0.026260000000     0.465005   
Zn3      Zn     0.051930000000     0.951080000000     0.945650000000     0.460702   
Zn4      Zn     0.953850000000     0.026910000000     0.950750000000     0.460424   
Zn5      Zn     0.948200000000     0.044610000000     0.444880000000     0.463558   
Zn6      Zn     0.034850000000     0.955310000000     0.447550000000     0.466176   
Zn7      Zn     0.041730000000     0.047260000000     0.527930000000     0.465543   
Zn8      Zn     0.949060000000     0.964660000000     0.537220000000     0.46137    
Zn9      Zn     0.049810000000     0.447280000000     0.966930000000     0.472829   
Zn10     Zn     0.953940000000     0.448970000000     0.041660000000     0.458005   
Zn11     Zn     0.041080000000     0.535570000000     0.055010000000     0.452803   
Zn12     Zn     0.968100000000     0.537280000000     0.954020000000     0.462767   
Zn13     Zn     0.960160000000     0.458010000000     0.549310000000     0.463804   
Zn14     Zn     0.044550000000     0.453270000000     0.463730000000     0.458659   
Zn15     Zn     0.959020000000     0.546240000000     0.462230000000     0.459993   
Zn16     Zn     0.049670000000     0.546560000000     0.544950000000     0.462592   
Zn17     Zn     0.464980000000     0.948820000000     0.044650000000     0.460199   
Zn18     Zn     0.464890000000     0.042920000000     0.964710000000     0.467523   
Zn19     Zn     0.553480000000     0.037360000000     0.049650000000     0.459956   
Zn20     Zn     0.553530000000     0.955660000000     0.958500000000     0.46337    
Zn21     Zn     0.534620000000     0.971410000000     0.457030000000     0.458893   
Zn22     Zn     0.445700000000     0.058340000000     0.464650000000     0.45926    
Zn23     Zn     0.447700000000     0.960410000000     0.541270000000     0.461055   
Zn24     Zn     0.534000000000     0.050460000000     0.549770000000     0.462503   
Zn25     Zn     0.463350000000     0.452480000000     0.062090000000     0.46797    
Zn26     Zn     0.456740000000     0.538110000000     0.974030000000     0.461613   
Zn27     Zn     0.550090000000     0.539670000000     0.058640000000     0.45493    
Zn28     Zn     0.548580000000     0.454420000000     0.971560000000     0.462922   
Zn29     Zn     0.463460000000     0.556190000000     0.473600000000     0.453661   
Zn30     Zn     0.455300000000     0.471870000000     0.563160000000     0.456458   
Zn31     Zn     0.543940000000     0.459840000000     0.480520000000     0.458383   
Zn32     Zn     0.551260000000     0.553230000000     0.559850000000     0.455225   


