data_structure

_audit_creation_method RASPA-1.0
_audit_creation_date 2023-5-19
_audit_author_name 'Poobodin Mano'

_cell_length_a    25.71
_cell_length_b    25.7211
_cell_length_c    25.7923
_cell_angle_alpha 90
_cell_angle_beta  90
_cell_angle_gamma 90
_cell_volume      17056.2

_symmetry_cell_setting          triclinic
_symmetry_space_group_name_Hall 'P 1'
_symmetry_space_group_name_H-M  'P 1'
_symmetry_Int_Tables_number     1

_symmetry_equiv_pos_as_xyz 'x,y,z'

loop_
_atom_site_label
_atom_site_type_symbol
_atom_site_fract_x
_atom_site_fract_y
_atom_site_fract_z
_atom_site_charge
C1       C      0.992730000000     0.997730000000     0.151630000000     0.363598   
C2       C      0.142530000000     0.998900000000     0.018970000000     0.360058   
C3       C      0.990930000000     0.859270000000     0.991910000000     0.361576   
C4       C      0.002280000000     0.004750000000     0.864900000000     0.335842   
C5       C      0.006050000000     0.143820000000     0.001430000000     0.368427   
C6       C      0.855620000000     0.009860000000     0.015740000000     0.36758    
C7       C      0.000630000000     0.996050000000     0.365530000000     0.366289   
C8       C      0.143990000000     0.988100000000     0.503810000000     0.368611   
C9       C      0.008800000000     0.142380000000     0.512690000000     0.366148   
C10      C      0.999980000000     0.995880000000     0.651150000000     0.362103   
C11      C      0.993790000000     0.855900000000     0.515360000000     0.370516   
C12      C      0.855460000000     0.008550000000     0.500670000000     0.367935   
C13      C      0.010150000000     0.358140000000     0.992660000000     0.367282   
C14      C      0.855170000000     0.486060000000     0.016990000000     0.365427   
C15      C      0.007290000000     0.509230000000     0.140900000000     0.36644    
C16      C      0.986500000000     0.644200000000     0.984580000000     0.362953   
C17      C      0.985080000000     0.498370000000     0.854360000000     0.3643     
C18      C      0.142090000000     0.506670000000     0.993100000000     0.365572   
C19      C      0.006180000000     0.357650000000     0.509930000000     0.364461   
C20      C      0.005100000000     0.506580000000     0.358290000000     0.361386   
C21      C      0.856180000000     0.495760000000     0.475670000000     0.36891    
C22      C      0.999230000000     0.642380000000     0.515650000000     0.366201   
C23      C      0.142760000000     0.502530000000     0.499220000000     0.363153   
C24      C      0.979910000000     0.504240000000     0.640320000000     0.362766   
C25      C      0.358830000000     0.997660000000     0.020170000000     0.362083   
C26      C      0.493620000000     0.994650000000     0.856260000000     0.364063   
C27      C      0.502280000000     0.142060000000     0.991850000000     0.362324   
C28      C      0.645990000000     0.992570000000     0.995290000000     0.363696   
C29      C      0.495140000000     0.853700000000     0.999270000000     0.365014   
C30      C      0.517410000000     0.002800000000     0.142820000000     0.367108   
C31      C      0.355390000000     0.993720000000     0.484520000000     0.369146   
C32      C      0.497440000000     0.999360000000     0.352730000000     0.367359   
C33      C      0.492680000000     0.139130000000     0.502060000000     0.365803   
C34      C      0.641400000000     0.996200000000     0.488820000000     0.362578   
C35      C      0.501520000000     0.851810000000     0.501090000000     0.363176   
C36      C      0.495780000000     0.998300000000     0.640980000000     0.360787   
C37      C      0.356270000000     0.508480000000     0.006660000000     0.364223   
C38      C      0.490360000000     0.355250000000     0.981960000000     0.36417    
C39      C      0.505100000000     0.501990000000     0.856960000000     0.369989   
C40      C      0.641390000000     0.490970000000     0.014970000000     0.366016   
C41      C      0.496500000000     0.494280000000     0.142170000000     0.363226   
C42      C      0.506760000000     0.641640000000     0.988140000000     0.36612    
C43      C      0.358490000000     0.496530000000     0.494920000000     0.366322   
C44      C      0.498050000000     0.353520000000     0.512320000000     0.367778   
C45      C      0.509930000000     0.495100000000     0.355660000000     0.360559   
C46      C      0.646020000000     0.495330000000     0.492360000000     0.364166   
C47      C      0.509210000000     0.502140000000     0.640620000000     0.373466   
C48      C      0.492500000000     0.639130000000     0.508160000000     0.365629   
C49      C      0.460110000000     0.497000000000     0.721540000000    -0.00903958 
C50      C      0.556850000000     0.519160000000     0.721940000000     0.00920593 
C51      C      0.461520000000     0.522410000000     0.774850000000    -0.0115371  
C52      C      0.557060000000     0.495110000000     0.776720000000    -0.0585461  
C53      C      0.568320000000     0.437500000000     0.774390000000     0.321483   
C54      C      0.514220000000     0.545320000000     0.274020000000    -0.0110407  
C55      C      0.531830000000     0.449500000000     0.274070000000     0.00558073 
C56      C      0.482720000000     0.539830000000     0.224140000000    -0.0153736  
C57      C      0.498440000000     0.442820000000     0.224800000000    -0.0585588  
C58      C      0.519310000000     0.397370000000     0.193730000000     0.314425   
C59      C      0.475630000000     0.768260000000     0.460870000000    -0.0114948  
C60      C      0.536920000000     0.769610000000     0.537150000000     0.00533543 
C61      C      0.448100000000     0.720980000000     0.484110000000    -0.0164386  
C62      C      0.508000000000     0.722390000000     0.559750000000    -0.057373   
C63      C      0.542280000000     0.692700000000     0.597240000000     0.31708    
C64      C      0.520950000000     0.223500000000     0.466380000000    -0.0112125  
C65      C      0.447290000000     0.219340000000     0.530190000000     0.00396967 
C66      C      0.542330000000     0.270760000000     0.494450000000    -0.0154944  
C67      C      0.466620000000     0.270260000000     0.555530000000    -0.0575551  
C68      C      0.420170000000     0.299440000000     0.576990000000     0.316917   
C69      C      0.521640000000     0.769840000000     0.038640000000    -0.0111212  
C70      C      0.456420000000     0.771740000000     0.966110000000     0.00469555 
C71      C      0.549310000000     0.724310000000     0.012480000000    -0.0169991  
C72      C      0.484790000000     0.725760000000     0.940340000000    -0.0576419  
C73      C      0.447850000000     0.696210000000     0.905330000000     0.317558   
C74      C      0.471870000000     0.225840000000     0.028100000000    -0.0111775  
C75      C      0.537980000000     0.224270000000     0.955920000000     0.00375707 
C76      C      0.445650000000     0.272590000000     0.002530000000    -0.0166925  
C77      C      0.511100000000     0.272070000000     0.931660000000    -0.0555817  
C78      C      0.548800000000     0.302060000000     0.897880000000     0.313959   
C79      C      0.544950000000     0.004640000000     0.722860000000    -0.0101517  
C80      C      0.448010000000     0.017060000000     0.721820000000     0.00589975 
C81      C      0.540810000000     0.978130000000     0.775790000000    -0.0161624  
C82      C      0.443250000000     0.987190000000     0.773370000000    -0.0583722  
C83      C      0.396090000000     0.007290000000     0.802340000000     0.316545   
C84      C      0.536830000000     0.958300000000     0.225540000000    -0.0113052  
C85      C      0.521540000000     0.054680000000     0.223700000000     0.00722545 
C86      C      0.497600000000     0.952790000000     0.269810000000    -0.0153093  
C87      C      0.484210000000     0.049640000000     0.269980000000    -0.0576379  
C88      C      0.482480000000     0.099020000000     0.302030000000     0.315436   
C89      C      0.729440000000     0.542560000000     0.495020000000    -0.0114874  
C90      C      0.727270000000     0.444250000000     0.493540000000     0.00500811 
C91      C      0.774690000000     0.541580000000     0.456450000000    -0.0149845  
C92      C      0.774540000000     0.444450000000     0.457110000000    -0.0546213  
C93      C      0.806580000000     0.395210000000     0.461770000000     0.313633   
C94      C      0.222610000000     0.511660000000     0.446440000000    -0.0111726  
C95      C      0.225230000000     0.523720000000     0.542770000000     0.00577432 
C96      C      0.276570000000     0.486180000000     0.447930000000    -0.0158703  
C97      C      0.276170000000     0.492870000000     0.545940000000    -0.0575243  
C98      C      0.306440000000     0.511870000000     0.592750000000     0.314715   
C99      C      0.774650000000     0.434920000000     0.003690000000    -0.0113695  
C100     C      0.778000000000     0.501930000000     0.072530000000     0.00461269 
C101     C      0.723780000000     0.456420000000     0.982790000000    -0.01394    
C102     C      0.723040000000     0.521700000000     0.058130000000    -0.0571729  
C103     C      0.693930000000     0.531370000000     0.108330000000     0.317324   
C104     C      0.272110000000     0.485710000000     0.047960000000    -0.010393   
C105     C      0.277330000000     0.560110000000     0.986290000000     0.0054052  
C106     C      0.224130000000     0.465270000000     0.019740000000    -0.0170325  
C107     C      0.227500000000     0.541720000000     0.958410000000    -0.0597948  
C108     C      0.199200000000     0.589030000000     0.937700000000     0.317073   
C109     C      0.002440000000     0.548320000000     0.722440000000    -0.0097441  
C110     C      0.926890000000     0.487990000000     0.719320000000     0.00429282 
C111     C      0.023300000000     0.521680000000     0.770550000000    -0.0160944  
C112     C      0.942960000000     0.464440000000     0.772290000000    -0.0588627  
C113     C      0.893590000000     0.452520000000     0.802070000000     0.318135   
C114     C      0.976790000000     0.548370000000     0.222480000000    -0.0112574  
C115     C      0.050230000000     0.481880000000     0.222240000000     0.00891003 
C116     C      0.995300000000     0.558080000000     0.278130000000    -0.0115129  
C117     C      0.029930000000     0.464980000000     0.275660000000    -0.0606681  
C118     C      0.989640000000     0.422620000000     0.270110000000     0.321991   
C119     C      0.945410000000     0.720210000000     0.530980000000    -0.0100222  
C120     C      0.041470000000     0.722720000000     0.545860000000     0.00744958 
C121     C      0.946900000000     0.774720000000     0.507390000000    -0.015738   
C122     C      0.045450000000     0.774820000000     0.517270000000    -0.0580093  
C123     C      0.090300000000     0.805710000000     0.539860000000     0.313933   
C124     C      0.060790000000     0.278820000000     0.519040000000    -0.0102991  
C125     C      0.965710000000     0.276750000000     0.540610000000     0.00789828 
C126     C      0.057320000000     0.222240000000     0.499760000000    -0.0161056  
C127     C      0.959600000000     0.224760000000     0.512590000000    -0.0565948  
C128     C      0.914270000000     0.195550000000     0.536370000000     0.310402   
C129     C      0.725090000000     0.956520000000     0.515050000000    -0.01091    
C130     C      0.722610000000     0.020920000000     0.442610000000     0.00370509 
C131     C      0.771050000000     0.984990000000     0.538980000000    -0.0165085  
C132     C      0.772100000000     0.047510000000     0.464050000000    -0.0558167  
C133     C      0.802610000000     0.069710000000     0.418950000000     0.315699   
C134     C      0.229860000000     0.014850000000     0.537490000000    -0.0104158  
C135     C      0.223080000000     0.942530000000     0.472410000000     0.00399159 
C136     C      0.273640000000     0.038730000000     0.505890000000    -0.0151332  
C137     C      0.270070000000     0.965110000000     0.442770000000    -0.0572299  
C138     C      0.298570000000     0.921780000000     0.414960000000     0.317255   
C139     C      0.008870000000     0.725180000000     0.937160000000    -0.00940341 
C140     C      0.932680000000     0.722980000000     0.995920000000     0.00555619 
C141     C      0.026700000000     0.777370000000     0.959120000000    -0.0161836  
C142     C      0.945850000000     0.777270000000     0.017540000000    -0.0592821  
C143     C      0.894890000000     0.806280000000     0.024070000000     0.317122   
C144     C      0.992130000000     0.276170000000     0.945570000000    -0.0106755  
C145     C      0.062360000000     0.279590000000     0.011530000000     0.00520646 
C146     C      0.971100000000     0.225820000000     0.968360000000    -0.0160274  
C147     C      0.045370000000     0.226840000000     0.034150000000    -0.0579275  
C148     C      0.094460000000     0.197970000000     0.049530000000     0.317299   
C149     C      0.729590000000     0.953320000000     0.024100000000    -0.0133193  
C150     C      0.729050000000     0.027770000000     0.961020000000     0.00563014 
C151     C      0.772700000000     0.980490000000     0.055040000000    -0.0157407  
C152     C      0.770350000000     0.055460000000     0.994000000000    -0.0569487  
C153     C      0.799680000000     0.095510000000     0.962370000000     0.317524   
C154     C      0.226200000000     0.969590000000     0.982590000000    -0.0107931  
C155     C      0.223420000000     0.041480000000     0.048840000000     0.00349812 
C156     C      0.276700000000     0.950210000000     0.006570000000    -0.0164399  
C157     C      0.277040000000     0.023780000000     0.069680000000    -0.0573555  
C158     C      0.305450000000     0.070790000000     0.090870000000     0.31684    
C159     C      0.954120000000     0.981020000000     0.733820000000    -0.0112905  
C160     C      0.051670000000     0.985840000000     0.731010000000     0.000492167
C161     C      0.953550000000     0.014340000000     0.782850000000    -0.0150433  
C162     C      0.051860000000     0.013770000000     0.783890000000    -0.0423383  
C163     C      0.096810000000     0.996120000000     0.816650000000     0.249117   
C164     C      0.985850000000     0.047380000000     0.233130000000    -0.0108275  
C165     C      0.970650000000     0.951100000000     0.232240000000     0.00551019 
C166     C      0.014850000000     0.042660000000     0.284490000000    -0.0152267  
C167     C      0.001790000000     0.945180000000     0.282860000000    -0.0574893  
C168     C      0.980450000000     0.899150000000     0.312790000000     0.3147     
H1       H      0.463190000000     0.565360000000     0.770180000000     0.0602828  
H2       H      0.426730000000     0.513440000000     0.699470000000     0.0525739  
H3       H      0.589440000000     0.513610000000     0.798710000000     0.0720672  
H4       H      0.424700000000     0.512860000000     0.795430000000     0.0565479  
H5       H      0.452800000000     0.454630000000     0.725660000000     0.071812   
H6       H      0.592400000000     0.507100000000     0.700400000000     0.0520948  
H7       H      0.558470000000     0.562210000000     0.725650000000     0.0527838  
H8       H      0.625560000000     0.383590000000     0.781790000000     0.195087   
H9       H      0.440900000000     0.537450000000     0.234900000000     0.0484873  
H10      H      0.498090000000     0.577870000000     0.297400000000     0.0507231  
H11      H      0.458160000000     0.433380000000     0.237560000000     0.0722708  
H12      H      0.487650000000     0.575650000000     0.200460000000     0.0516312  
H13      H      0.554700000000     0.556020000000     0.263230000000     0.0496313  
H14      H      0.573370000000     0.454300000000     0.262870000000     0.0549467  
H15      H      0.528560000000     0.413680000000     0.298080000000     0.0529617  
H16      H      0.501340000000     0.325700000000     0.165930000000     0.1911     
H17      H      0.415230000000     0.735070000000     0.508390000000     0.0527158  
H18      H      0.446460000000     0.791670000000     0.439270000000     0.0521396  
H19      H      0.475460000000     0.738940000000     0.583060000000     0.0696906  
H20      H      0.431300000000     0.697620000000     0.451960000000     0.0543888  
H21      H      0.504880000000     0.754190000000     0.432360000000     0.0483999  
H22      H      0.571350000000     0.755780000000     0.514960000000     0.0567775  
H23      H      0.551170000000     0.794460000000     0.569480000000     0.0534634  
H24      H      0.615720000000     0.666590000000     0.610300000000     0.191032   
H25      H      0.569320000000     0.257060000000     0.525270000000     0.0520316  
H26      H      0.554130000000     0.201430000000     0.449670000000     0.0587531  
H27      H      0.491780000000     0.258510000000     0.588690000000     0.0714642  
H28      H      0.565810000000     0.293760000000     0.466500000000     0.0574928  
H29      H      0.496070000000     0.236960000000     0.433760000000     0.0536019  
H30      H      0.416180000000     0.228560000000     0.501630000000     0.0558123  
H31      H      0.429590000000     0.194390000000     0.560700000000     0.0533062  
H32      H      0.351170000000     0.332950000000     0.558000000000     0.194159   
H33      H      0.580230000000     0.740320000000     0.986870000000     0.0508095  
H34      H      0.550900000000     0.793280000000     0.060080000000     0.0527978  
H35      H      0.515080000000     0.743480000000     0.914970000000     0.0684037  
H36      H      0.568870000000     0.700660000000     0.042790000000     0.0569543  
H37      H      0.493820000000     0.753880000000     0.067570000000     0.0492822  
H38      H      0.424010000000     0.756520000000     0.990330000000     0.0575294  
H39      H      0.439260000000     0.796950000000     0.935510000000     0.05492    
H40      H      0.375210000000     0.665460000000     0.899930000000     0.192667   
H41      H      0.415110000000     0.257890000000     0.975720000000     0.0510662  
H42      H      0.441400000000     0.202350000000     0.047750000000     0.0527579  
H43      H      0.480610000000     0.256020000000     0.905440000000     0.0701369  
H44      H      0.425770000000     0.295650000000     0.033090000000     0.055357   
H45      H      0.498930000000     0.240370000000     0.058460000000     0.051039   
H46      H      0.571380000000     0.237550000000     0.979930000000     0.0601648  
H47      H      0.553730000000     0.199310000000     0.924380000000     0.055566   
H48      H      0.622430000000     0.330450000000     0.893280000000     0.192226   
H49      H      0.541230000000     0.935380000000     0.769350000000     0.049364   
H50      H      0.577740000000     0.987020000000     0.700920000000     0.0506973  
H51      H      0.437130000000     0.945410000000     0.763760000000     0.0722412  
H52      H      0.576050000000     0.987690000000     0.798940000000     0.0518083  
H53      H      0.554810000000     0.046220000000     0.729380000000     0.050351   
H54      H      0.449740000000     0.059570000000     0.729790000000     0.0584051  
H55      H      0.412640000000     0.009440000000     0.698080000000     0.0526736  
H56      H      0.365690000000     0.070250000000     0.839000000000     0.191649   
H57      H      0.458560000000     0.944820000000     0.253020000000     0.0562265  
H58      H      0.535980000000     0.922290000000     0.201710000000     0.0510272  
H59      H      0.444780000000     0.044880000000     0.252740000000     0.077007   
H60      H      0.509020000000     0.918920000000     0.294150000000     0.0511957  
H61      H      0.576410000000     0.962420000000     0.242470000000     0.0495852  
H62      H      0.561120000000     0.063840000000     0.238560000000     0.0567699  
H63      H      0.509210000000     0.087550000000     0.198500000000     0.0544193  
H64      H      0.435100000000     0.144550000000     0.345700000000     0.190728   
H65      H      0.758580000000     0.542590000000     0.416430000000     0.051774   
H66      H      0.705200000000     0.577550000000     0.487270000000     0.0508724  
H67      H      0.758010000000     0.444810000000     0.417170000000     0.0700072  
H68      H      0.798800000000     0.577020000000     0.462320000000     0.0509579  
H69      H      0.745450000000     0.545790000000     0.534950000000     0.0510184  
H70      H      0.741090000000     0.439010000000     0.534080000000     0.0599832  
H71      H      0.701770000000     0.410590000000     0.484120000000     0.054628   
H72      H      0.831870000000     0.339360000000     0.511490000000     0.194768   
H73      H      0.271120000000     0.443400000000     0.444850000000     0.0486292  
H74      H      0.199550000000     0.494000000000     0.414510000000     0.0507363  
H75      H      0.265930000000     0.451270000000     0.552090000000     0.0720313  
H76      H      0.298930000000     0.498510000000     0.413100000000     0.0510925  
H77      H      0.227910000000     0.553460000000     0.436780000000     0.0483133  
H78      H      0.234060000000     0.566000000000     0.539850000000     0.0564456  
H79      H      0.202750000000     0.517220000000     0.579110000000     0.0527862  
H80      H      0.333740000000     0.490610000000     0.663530000000     0.190289   
H81      H      0.732540000000     0.482380000000     0.949420000000     0.0519751  
H82      H      0.796260000000     0.416170000000     0.971390000000     0.0559264  
H83      H      0.728020000000     0.559580000000     0.037820000000     0.0707736  
H84      H      0.700950000000     0.423030000000     0.967510000000     0.0579948  
H85      H      0.765570000000     0.404460000000     0.032950000000     0.0545259  
H86      H      0.774920000000     0.472490000000     0.104070000000     0.0555325  
H87      H      0.800910000000     0.534990000000     0.088400000000     0.0547763  
H88      H      0.655810000000     0.496050000000     0.167690000000     0.195012   
H89      H      0.237170000000     0.436370000000     0.990410000000     0.0508138  
H90      H      0.293730000000     0.452310000000     0.064810000000     0.0523451  
H91      H      0.240290000000     0.517930000000     0.924690000000     0.0722311  
H92      H      0.199850000000     0.444010000000     0.048380000000     0.0550646  
H93      H      0.259020000000     0.511020000000     0.080410000000     0.0491775  
H94      H      0.266600000000     0.588930000000     0.016660000000     0.0544108  
H95      H      0.302750000000     0.580490000000     0.957920000000     0.0535341  
H96      H      0.172410000000     0.623330000000     0.871990000000     0.190579   
H97      H      0.050770000000     0.490580000000     0.758370000000     0.0529725  
H98      H      0.035600000000     0.565000000000     0.700370000000     0.0532834  
H99      H      0.963080000000     0.427050000000     0.763770000000     0.069977   
H100     H      0.046020000000     0.550930000000     0.792760000000     0.0560497  
H101     H      0.977100000000     0.581140000000     0.734780000000     0.0490035  
H102     H      0.897740000000     0.519360000000     0.725660000000     0.0538563  
H103     H      0.907740000000     0.457300000000     0.695660000000     0.0535794  
H104     H      0.831540000000     0.485070000000     0.838490000000     0.190377   
H105     H      0.030530000000     0.583130000000     0.276940000000     0.0478456  
H106     H      0.973800000000     0.586410000000     0.202170000000     0.0520441  
H107     H      0.063570000000     0.448030000000     0.297000000000     0.0732643  
H108     H      0.964580000000     0.580240000000     0.298940000000     0.0553482  
H109     H      0.936940000000     0.531630000000     0.223360000000     0.065293   
H110     H      0.063150000000     0.447030000000     0.200170000000     0.054744   
H111     H      0.085350000000     0.506430000000     0.228090000000     0.0427816  
H112     H      0.979720000000     0.344320000000     0.267800000000     0.195658   
H113     H      0.944130000000     0.770740000000     0.464530000000     0.0497162  
H114     H      0.913610000000     0.697490000000     0.512540000000     0.0496779  
H115     H      0.054190000000     0.766360000000     0.475830000000     0.074839   
H116     H      0.911860000000     0.796640000000     0.520230000000     0.051235   
H117     H      0.935580000000     0.724180000000     0.572790000000     0.0466962  
H118     H      0.036500000000     0.729790000000     0.588160000000     0.054513   
H119     H      0.078200000000     0.700510000000     0.540010000000     0.0512405  
H120     H      0.161560000000     0.835750000000     0.523730000000     0.18982    
H121     H      0.059070000000     0.222870000000     0.456680000000     0.0500026  
H122     H      0.090150000000     0.300150000000     0.495580000000     0.0516228  
H123     H      0.950790000000     0.233020000000     0.471090000000     0.0781484  
H124     H      0.092230000000     0.200480000000     0.513210000000     0.0500332  
H125     H      0.075390000000     0.278060000000     0.559620000000     0.0479114  
H126     H      0.973040000000     0.269720000000     0.582580000000     0.0564175  
H127     H      0.928680000000     0.298910000000     0.536890000000     0.0518852  
H128     H      0.889400000000     0.158210000000     0.601190000000     0.188806   
H129     H      0.755790000000     0.014560000000     0.566550000000     0.0503601  
H130     H      0.702190000000     0.938020000000     0.546590000000     0.0520034  
H131     H      0.758440000000     0.080540000000     0.488460000000     0.0727194  
H132     H      0.793790000000     0.956420000000     0.561990000000     0.0541844  
H133     H      0.740280000000     0.925090000000     0.489600000000     0.050494   
H134     H      0.734000000000     0.992000000000     0.412580000000     0.0567475  
H135     H      0.697920000000     0.050660000000     0.423250000000     0.0555678  
H136     H      0.839340000000     0.051430000000     0.351590000000     0.19441    
H137     H      0.256190000000     0.065610000000     0.476910000000     0.0501668  
H138     H      0.208140000000     0.046580000000     0.557160000000     0.0541781  
H139     H      0.253540000000     0.991540000000     0.412760000000     0.0703987  
H140     H      0.298170000000     0.062700000000     0.532070000000     0.0556064  
H141     H      0.247140000000     0.989500000000     0.567890000000     0.0529582  
H142     H      0.237030000000     0.912030000000     0.499670000000     0.0552147  
H143     H      0.196320000000     0.923440000000     0.444380000000     0.0566072  
H144     H      0.331320000000     0.850410000000     0.423910000000     0.190332   
H145     H      0.058420000000     0.770030000000     0.987510000000     0.0539203  
H146     H      0.043620000000     0.703400000000     0.923520000000     0.0545307  
H147     H      0.963170000000     0.771550000000     0.056680000000     0.074297   
H148     H      0.043830000000     0.800370000000     0.926830000000     0.0550817  
H149     H      0.983680000000     0.732780000000     0.902910000000     0.0488993  
H150     H      0.904740000000     0.726870000000     0.963140000000     0.0517758  
H151     H      0.912580000000     0.700300000000     0.026710000000     0.053861   
H152     H      0.842100000000     0.831210000000     0.077100000000     0.188936   
H153     H      0.938390000000     0.235500000000     0.994880000000     0.0572677  
H154     H      0.959440000000     0.297880000000     0.927510000000     0.0573314  
H155     H      0.022390000000     0.235070000000     0.069820000000     0.0730836  
H156     H      0.954680000000     0.202440000000     0.936000000000     0.0578694  
H157     H      0.020350000000     0.266230000000     0.914410000000     0.0511415  
H158     H      0.093280000000     0.273240000000     0.981940000000     0.0529299  
H159     H      0.079810000000     0.303370000000     0.043090000000     0.0538243  
H160     H      0.157310000000     0.159180000000     0.021520000000     0.190184   
H161     H      0.754040000000     0.003770000000     0.086260000000     0.0502193  
H162     H      0.705130000000     0.930320000000     0.051210000000     0.0526538  
H163     H      0.748330000000     0.077350000000     0.024150000000     0.0684918  
H164     H      0.797090000000     0.950380000000     0.074090000000     0.0539346  
H165     H      0.748250000000     0.925620000000     0.996720000000     0.0527972  
H166     H      0.748880000000     0.004970000000     0.930140000000     0.0577894  
H167     H      0.703920000000     0.057230000000     0.941820000000     0.0552953  
H168     H      0.830670000000     0.111090000000     0.891570000000     0.19102    
H169     H      0.266780000000     0.921790000000     0.037550000000     0.0501862  
H170     H      0.204260000000     0.935380000000     0.967850000000     0.0546544  
H171     H      0.268900000000     0.996930000000     0.102600000000     0.0695596  
H172     H      0.298700000000     0.928690000000     0.976340000000     0.0580214  
H173     H      0.235760000000     0.994780000000     0.948860000000     0.0545363  
H174     H      0.228880000000     0.074630000000     0.021650000000     0.0549769  
H175     H      0.199850000000     0.056100000000     0.081960000000     0.0547459  
H176     H      0.334080000000     0.142070000000     0.072390000000     0.190437   
H177     H      0.949720000000     0.055880000000     0.771500000000     0.0519261  
H178     H      0.918350000000     0.989340000000     0.711000000000     0.0499897  
H179     H      0.057370000000     0.055890000000     0.775780000000     0.0634796  
H180     H      0.918930000000     0.003570000000     0.806400000000     0.05395    
H181     H      0.953590000000     0.939310000000     0.745210000000     0.0513868  
H182     H      0.058180000000     0.943540000000     0.737500000000     0.0533823  
H183     H      0.084740000000     0.000190000000     0.707150000000     0.0618748  
H184     H      0.174290000000     0.980440000000     0.818350000000     0.170527   
H185     H      0.057230000000     0.041670000000     0.275940000000     0.0522013  
H186     H      0.002500000000     0.080250000000     0.210580000000     0.0565309  
H187     H      0.042850000000     0.936710000000     0.272040000000     0.074188   
H188     H      0.007500000000     0.078220000000     0.307940000000     0.0543372  
H189     H      0.944630000000     0.057230000000     0.241780000000     0.0506277  
H190     H      0.928500000000     0.954770000000     0.241410000000     0.0563437  
H191     H      0.976050000000     0.915430000000     0.208370000000     0.0537306  
H192     H      0.998320000000     0.827370000000     0.340350000000     0.190431   
N1       N      0.507500000000     0.505030000000     0.804190000000    -0.143244   
N2       N      0.509270000000     0.505210000000     0.693340000000    -0.153825   
N3       N      0.496620000000     0.492320000000     0.195210000000    -0.143941   
N4       N      0.515550000000     0.496030000000     0.302920000000    -0.157249   
N5       N      0.484590000000     0.691370000000     0.516880000000    -0.143325   
N6       N      0.502740000000     0.798520000000     0.501410000000    -0.157698   
N7       N      0.499600000000     0.300430000000     0.518750000000    -0.143539   
N8       N      0.489300000000     0.192230000000     0.502190000000    -0.15781    
N9       N      0.512080000000     0.694400000000     0.980690000000    -0.144195   
N10      N      0.492420000000     0.800520000000     0.000060000000    -0.158469   
N11      N      0.484180000000     0.302780000000     0.972660000000    -0.142815   
N12      N      0.501870000000     0.195390000000     0.989850000000    -0.156278   
N13      N      0.492300000000     0.991700000000     0.803240000000    -0.142567   
N14      N      0.495660000000     0.002100000000     0.693940000000    -0.156414   
N15      N      0.495640000000     0.001510000000     0.299800000000    -0.143619   
N16      N      0.524430000000     0.005150000000     0.195230000000    -0.158074   
N17      N      0.804400000000     0.493260000000     0.463840000000    -0.145207   
N18      N      0.699060000000     0.494170000000     0.490860000000    -0.15781    
N19      N      0.305240000000     0.497040000000     0.496310000000    -0.143965   
N20      N      0.195630000000     0.508190000000     0.496700000000    -0.157575   
N21      N      0.694330000000     0.486470000000     0.022050000000    -0.141037   
N22      N      0.803980000000     0.476890000000     0.028460000000    -0.156715   
N23      N      0.195700000000     0.507500000000     0.992700000000    -0.143388   
N24      N      0.303870000000     0.516450000000     0.012040000000    -0.157924   
N25      N      0.980800000000     0.497950000000     0.801080000000    -0.14273    
N26      N      0.971510000000     0.511100000000     0.692290000000    -0.157819   
N27      N      0.008470000000     0.509310000000     0.305320000000    -0.142528   
N28      N      0.011280000000     0.512770000000     0.193710000000    -0.154883   
N29      N      0.995180000000     0.803110000000     0.519700000000    -0.144821   
N30      N      0.996120000000     0.694120000000     0.526750000000    -0.159142   
N31      N      0.009000000000     0.195380000000     0.515200000000    -0.142602   
N32      N      0.010070000000     0.305340000000     0.518850000000    -0.156419   
N33      N      0.801960000000     0.011650000000     0.498540000000    -0.142799   
N34      N      0.694340000000     0.992990000000     0.483710000000    -0.157613   
N35      N      0.302390000000     0.997310000000     0.478370000000    -0.144523   
N36      N      0.196910000000     0.983170000000     0.503240000000    -0.158906   
N37      N      0.984730000000     0.806390000000     0.985660000000    -0.141738   
N38      N      0.978920000000     0.696290000000     0.976090000000    -0.156428   
N39      N      0.010990000000     0.196980000000     0.998090000000    -0.14204    
N40      N      0.018890000000     0.306100000000     0.985970000000    -0.157461   
N41      N      0.802630000000     0.015670000000     0.020920000000    -0.144117   
N42      N      0.699260000000     0.991590000000     0.994000000000    -0.157993   
N43      N      0.306160000000     0.993660000000     0.029770000000    -0.142373   
N44      N      0.195890000000     0.000000000000     0.020350000000    -0.155545   
N45      N      0.002320000000     0.007370000000     0.811910000000    -0.144337   
N46      N      0.001570000000     0.991740000000     0.703950000000    -0.155732   
N47      N      0.000980000000     0.994640000000     0.312540000000    -0.144084   
N48      N      0.987060000000     0.998060000000     0.204280000000    -0.157302   
O1       O      0.999270000000     0.001330000000     0.008360000000    -0.373568   
O2       O      0.972730000000     0.960870000000     0.125330000000    -0.299012   
O3       O      0.116400000000     0.029550000000     0.047900000000    -0.293742   
O4       O      0.024010000000     0.884340000000     0.964430000000    -0.293263   
O5       O      0.016270000000     0.035100000000     0.129200000000    -0.296258   
O6       O      0.963970000000     0.882960000000     0.025910000000    -0.291939   
O7       O      0.119450000000     0.969290000000     0.986590000000    -0.292976   
O8       O      0.962450000000     0.020580000000     0.889730000000    -0.291568   
O9       O      0.030190000000     0.119120000000     0.036670000000    -0.29154    
O10      O      0.043490000000     0.990220000000     0.889280000000    -0.237667   
O11      O      0.976620000000     0.119450000000     0.969790000000    -0.295213   
O12      O      0.880930000000     0.038380000000     0.984430000000    -0.288458   
O13      O      0.879520000000     0.975760000000     0.042590000000    -0.296751   
O14      O      0.000030000000     0.999120000000     0.508490000000    -0.370925   
O15      O      0.981120000000     0.035290000000     0.388740000000    -0.295002   
O16      O      0.116430000000     0.960790000000     0.473290000000    -0.299086   
O17      O      0.041470000000     0.116240000000     0.539350000000    -0.292211   
O18      O      0.020610000000     0.958620000000     0.391000000000    -0.2907     
O19      O      0.975330000000     0.119920000000     0.484040000000    -0.291375   
O20      O      0.122590000000     0.019150000000     0.535760000000    -0.301493   
O21      O      0.962650000000     0.974640000000     0.626330000000    -0.296659   
O22      O      0.027980000000     0.878470000000     0.487910000000    -0.294157   
O23      O      0.036630000000     0.019380000000     0.627290000000    -0.292596   
O24      O      0.958680000000     0.881790000000     0.538880000000    -0.294383   
O25      O      0.876800000000     0.978120000000     0.533290000000    -0.30184    
O26      O      0.883760000000     0.036290000000     0.471120000000    -0.281051   
O27      O      0.997470000000     0.501200000000     0.997670000000    -0.369029   
O28      O      0.037320000000     0.383700000000     0.025230000000    -0.300142   
O29      O      0.878260000000     0.458030000000     0.983360000000    -0.297725   
O30      O      0.976920000000     0.539970000000     0.116560000000    -0.297979   
O31      O      0.976450000000     0.381040000000     0.964670000000    -0.299615   
O32      O      0.033900000000     0.475300000000     0.116470000000    -0.298458   
O33      O      0.879870000000     0.521410000000     0.041300000000    -0.298875   
O34      O      0.020640000000     0.619770000000     0.958270000000    -0.294949   
O35      O      0.954810000000     0.470820000000     0.882070000000    -0.288587   
O36      O      0.957890000000     0.620100000000     0.017170000000    -0.297606   
O37      O      0.020280000000     0.525880000000     0.875940000000    -0.298106   
O38      O      0.115880000000     0.533990000000     0.961200000000    -0.286168   
O39      O      0.118620000000     0.477370000000     0.025230000000    -0.301967   
O40      O      0.998180000000     0.499920000000     0.499540000000    -0.373819   
O41      O      0.969470000000     0.382790000000     0.531620000000    -0.299339   
O42      O      0.022910000000     0.466580000000     0.381830000000    -0.291026   
O43      O      0.883330000000     0.532670000000     0.457090000000    -0.29964    
O44      O      0.039120000000     0.380860000000     0.480850000000    -0.292405   
O45      O      0.876530000000     0.462300000000     0.505860000000    -0.286814   
O46      O      0.984870000000     0.544280000000     0.383590000000    -0.296039   
O47      O      0.035180000000     0.615230000000     0.536170000000    -0.301822   
O48      O      0.118260000000     0.480800000000     0.462120000000    -0.299607   
O49      O      0.965050000000     0.621430000000     0.486740000000    -0.30294    
O50      O      0.118200000000     0.520560000000     0.538180000000    -0.300936   
O51      O      0.019050000000     0.526100000000     0.619300000000    -0.302785   
O52      O      0.947930000000     0.477670000000     0.613120000000    -0.296904   
O53      O      0.501980000000     0.997820000000     0.999950000000    -0.368381   
O54      O      0.387550000000     0.027330000000     0.047530000000    -0.283945   
O55      O      0.457770000000     0.973250000000     0.883010000000    -0.287557   
O56      O      0.531860000000     0.116060000000     0.961600000000    -0.294113   
O57      O      0.379150000000     0.970040000000     0.984440000000    -0.295479   
O58      O      0.473980000000     0.118800000000     0.025140000000    -0.298176   
O59      O      0.531690000000     0.017530000000     0.878320000000    -0.294674   
O60      O      0.621410000000     0.961270000000     0.024770000000    -0.300451   
O61      O      0.465240000000     0.879730000000     0.969500000000    -0.298127   
O62      O      0.621350000000     0.024800000000     0.966890000000    -0.30004    
O63      O      0.527070000000     0.876830000000     0.029060000000    -0.303385   
O64      O      0.536260000000     0.964700000000     0.117530000000    -0.302538   
O65      O      0.492170000000     0.038620000000     0.119770000000    -0.296953   
O66      O      0.498390000000     0.995540000000     0.496610000000    -0.371313   
O67      O      0.377590000000     0.022170000000     0.518230000000    -0.303366   
O68      O      0.478640000000     0.959950000000     0.375950000000    -0.296376   
O69      O      0.525420000000     0.116820000000     0.472430000000    -0.298083   
O70      O      0.382410000000     0.963580000000     0.456120000000    -0.285727   
O71      O      0.461740000000     0.112350000000     0.529910000000    -0.300417   
O72      O      0.518430000000     0.036100000000     0.378240000000    -0.286876   
O73      O      0.618340000000     0.967740000000     0.522170000000    -0.301055   
O74      O      0.473130000000     0.875120000000     0.468010000000    -0.301125   
O75      O      0.615510000000     0.026810000000     0.459680000000    -0.297055   
O76      O      0.529650000000     0.877710000000     0.532790000000    -0.297232   
O77      O      0.533500000000     0.975880000000     0.617760000000    -0.297327   
O78      O      0.458700000000     0.018670000000     0.615220000000    -0.298974   
O79      O      0.499140000000     0.498090000000     0.999520000000    -0.373157   
O80      O      0.381640000000     0.535850000000     0.974280000000    -0.301167   
O81      O      0.461880000000     0.377720000000     0.015790000000    -0.295439   
O82      O      0.542360000000     0.481150000000     0.882070000000    -0.292477   
O83      O      0.379490000000     0.474560000000     0.034520000000    -0.297902   
O84      O      0.465760000000     0.520630000000     0.880530000000    -0.298633   
O85      O      0.523870000000     0.381550000000     0.956830000000    -0.282606   
O86      O      0.615240000000     0.524030000000     0.041050000000    -0.2862     
O87      O      0.476590000000     0.457000000000     0.116180000000    -0.286868   
O88      O      0.618770000000     0.462550000000     0.981320000000    -0.295927   
O89      O      0.515890000000     0.533870000000     0.119400000000    -0.293522   
O90      O      0.532660000000     0.618930000000     0.023750000000    -0.297934   
O91      O      0.476650000000     0.615260000000     0.959360000000    -0.289878   
O92      O      0.502280000000     0.496640000000     0.498220000000    -0.373516   
O93      O      0.382760000000     0.518950000000     0.457900000000    -0.293165   
O94      O      0.469600000000     0.381800000000     0.541240000000    -0.286012   
O95      O      0.530790000000     0.458370000000     0.381710000000    -0.297645   
O96      O      0.383270000000     0.474390000000     0.531420000000    -0.291739   
O97      O      0.484600000000     0.531320000000     0.378280000000    -0.298786   
O98      O      0.526930000000     0.374560000000     0.478150000000    -0.301931   
O99      O      0.623080000000     0.533700000000     0.513650000000    -0.299464   
O100     O      0.470840000000     0.480680000000     0.618070000000    -0.295919   
O101     O      0.620080000000     0.457610000000     0.473410000000    -0.299121   
O102     O      0.546440000000     0.521870000000     0.614560000000    -0.295479   
O103     O      0.526550000000     0.614460000000     0.534050000000    -0.287399   
O104     O      0.464890000000     0.615190000000     0.474580000000    -0.295531   
O105     O      0.533850000000     0.406570000000     0.763720000000    -0.217239   
O106     O      0.617140000000     0.420240000000     0.783140000000    -0.33524    
O107     O      0.563300000000     0.398820000000     0.175720000000    -0.229733   
O108     O      0.489100000000     0.355160000000     0.185850000000    -0.331446   
O109     O      0.523210000000     0.673340000000     0.636130000000    -0.231009   
O110     O      0.593440000000     0.686100000000     0.587140000000    -0.331949   
O111     O      0.418280000000     0.310210000000     0.623110000000    -0.225427   
O112     O      0.380990000000     0.313930000000     0.545180000000    -0.331047   
O113     O      0.462660000000     0.681300000000     0.862810000000    -0.231666   
O114     O      0.399100000000     0.684960000000     0.921450000000    -0.330772   
O115     O      0.534170000000     0.319730000000     0.856370000000    -0.220407   
O116     O      0.598060000000     0.310710000000     0.914040000000    -0.327812   
O117     O      0.358480000000     0.979000000000     0.809040000000    -0.23413    
O118     O      0.395380000000     0.056600000000     0.820370000000    -0.331456   
O119     O      0.521930000000     0.124580000000     0.309350000000    -0.229616   
O120     O      0.437270000000     0.113750000000     0.324260000000    -0.329554   
O121     O      0.829990000000     0.378740000000     0.423930000000    -0.225781   
O122     O      0.810910000000     0.370390000000     0.507760000000    -0.327892   
O123     O      0.323280000000     0.556330000000     0.594070000000    -0.231578   
O124     O      0.314560000000     0.479540000000     0.633190000000    -0.330058   
O125     O      0.688980000000     0.575660000000     0.124760000000    -0.235227   
O126     O      0.674500000000     0.490880000000     0.135530000000    -0.323524   
O127     O      0.183910000000     0.622880000000     0.967330000000    -0.232827   
O128     O      0.190610000000     0.593660000000     0.886250000000    -0.333405   
O129     O      0.880920000000     0.407410000000     0.810030000000    -0.234516   
O130     O      0.863220000000     0.491740000000     0.819360000000    -0.330455   
O131     O      0.943970000000     0.433560000000     0.262700000000    -0.227627   
O132     O      0.004560000000     0.372320000000     0.271770000000    -0.334854   
O133     O      0.088310000000     0.821490000000     0.584540000000    -0.234718   
O134     O      0.132550000000     0.815820000000     0.510420000000    -0.330304   
O135     O      0.874260000000     0.189310000000     0.511530000000    -0.222389   
O136     O      0.917830000000     0.176960000000     0.585230000000    -0.331356   
O137     O      0.812320000000     0.116210000000     0.417410000000    -0.218578   
O138     O      0.819450000000     0.038140000000     0.380560000000    -0.326342   
O139     O      0.309840000000     0.926590000000     0.369170000000    -0.2295     
O140     O      0.312550000000     0.878270000000     0.440830000000    -0.330487   
O141     O      0.871840000000     0.823060000000     0.986100000000    -0.234399   
O142     O      0.874550000000     0.812870000000     0.071890000000    -0.332898   
O143     O      0.106140000000     0.193770000000     0.095280000000    -0.232797   
O144     O      0.125800000000     0.177740000000     0.012630000000    -0.329711   
O145     O      0.814170000000     0.135820000000     0.982890000000    -0.233216   
O146     O      0.811300000000     0.086250000000     0.912100000000    -0.331531   
O147     O      0.319470000000     0.071510000000     0.136160000000    -0.230128   
O148     O      0.315660000000     0.111810000000     0.059740000000    -0.330453   
O149     O      0.089210000000     0.984870000000     0.866020000000    -0.14696    
O150     O      0.143690000000     0.992180000000     0.796530000000    -0.309734   
O151     O      0.935880000000     0.899900000000     0.329360000000    -0.2329     
O152     O      0.010860000000     0.857180000000     0.321150000000    -0.329883   
Zn1      Zn     0.955550000000     0.956140000000     0.049390000000     0.462169   
Zn2      Zn     0.039370000000     0.044610000000     0.054950000000     0.463809   
Zn3      Zn     0.044870000000     0.961470000000     0.963250000000     0.450621   
Zn4      Zn     0.955880000000     0.043640000000     0.964120000000     0.460342   
Zn5      Zn     0.961420000000     0.046220000000     0.464000000000     0.462818   
Zn6      Zn     0.039620000000     0.951220000000     0.466010000000     0.467675   
Zn7      Zn     0.048710000000     0.038050000000     0.551660000000     0.45496    
Zn8      Zn     0.950550000000     0.959700000000     0.550340000000     0.456532   
Zn9      Zn     0.044370000000     0.460190000000     0.040560000000     0.458129   
Zn10     Zn     0.952380000000     0.454790000000     0.958170000000     0.46073    
Zn11     Zn     0.954520000000     0.545280000000     0.041700000000     0.454981   
Zn12     Zn     0.038340000000     0.543740000000     0.950020000000     0.456574   
Zn13     Zn     0.948640000000     0.457190000000     0.536790000000     0.460222   
Zn14     Zn     0.043050000000     0.457010000000     0.456970000000     0.452925   
Zn15     Zn     0.959560000000     0.549000000000     0.457880000000     0.458376   
Zn16     Zn     0.042420000000     0.537990000000     0.546540000000     0.458574   
Zn17     Zn     0.464710000000     0.044390000000     0.046610000000     0.457673   
Zn18     Zn     0.452320000000     0.957000000000     0.959730000000     0.455072   
Zn19     Zn     0.545490000000     0.038300000000     0.952920000000     0.453057   
Zn20     Zn     0.545210000000     0.951350000000     0.041350000000     0.455837   
Zn21     Zn     0.450700000000     0.035350000000     0.539310000000     0.459867   
Zn22     Zn     0.459550000000     0.949540000000     0.450840000000     0.461327   
Zn23     Zn     0.538690000000     0.042590000000     0.453400000000     0.4604     
Zn24     Zn     0.543610000000     0.955320000000     0.541960000000     0.449902   
Zn25     Zn     0.456490000000     0.540350000000     0.954790000000     0.466128   
Zn26     Zn     0.455480000000     0.452300000000     0.040550000000     0.454611   
Zn27     Zn     0.545200000000     0.457110000000     0.956300000000     0.464508   
Zn28     Zn     0.538970000000     0.543330000000     0.044890000000     0.458451   
Zn29     Zn     0.459740000000     0.539360000000     0.452510000000     0.450947   
Zn30     Zn     0.457730000000     0.459270000000     0.545420000000     0.471242   
Zn31     Zn     0.543330000000     0.447840000000     0.458590000000     0.456891   
Zn32     Zn     0.549080000000     0.540130000000     0.538260000000     0.461169   


