data_structure

_audit_creation_method RASPA-1.0
_audit_creation_date 2023-5-25
_audit_author_name 'Poobodin Mano'

_cell_length_a    33.9213
_cell_length_b    33.985
_cell_length_c    34.1067
_cell_angle_alpha 90
_cell_angle_beta  90
_cell_angle_gamma 90
_cell_volume      39318.7

_symmetry_cell_setting          triclinic
_symmetry_space_group_name_Hall 'P 1'
_symmetry_space_group_name_H-M  'P 1'
_symmetry_Int_Tables_number     1

_symmetry_equiv_pos_as_xyz 'x,y,z'

loop_
_atom_site_label
_atom_site_type_symbol
_atom_site_fract_x
_atom_site_fract_y
_atom_site_fract_z
_atom_site_charge
C1       C      0.006470000000     0.002810000000     0.117340000000     0.361983   
C2       C      0.117410000000     0.992820000000     0.004530000000     0.361464   
C3       C      0.997120000000     0.896270000000     0.013060000000     0.362351   
C4       C      0.008630000000     0.005980000000     0.900120000000     0.363794   
C5       C      0.020890000000     0.113370000000     0.016100000000     0.361636   
C6       C      0.900620000000     0.017530000000     0.002140000000     0.364211   
C7       C      0.004330000000     0.018560000000     0.399870000000     0.363452   
C8       C      0.118930000000     0.013940000000     0.503670000000     0.363857   
C9       C      0.005270000000     0.121420000000     0.508700000000     0.363984   
C10      C      0.023080000000     0.008290000000     0.616450000000     0.36286    
C11      C      0.007900000000     0.904240000000     0.499320000000     0.363305   
C12      C      0.901450000000     0.010430000000     0.522120000000     0.361254   
C13      C      0.016860000000     0.395440000000     0.018240000000     0.363678   
C14      C      0.894320000000     0.490690000000     0.014760000000     0.360153   
C15      C      0.998640000000     0.506310000000     0.125600000000     0.361983   
C16      C      0.989800000000     0.614000000000     0.014890000000     0.364885   
C17      C      0.005740000000     0.504280000000     0.908520000000     0.362357   
C18      C      0.111030000000     0.516610000000     0.019340000000     0.362203   
C19      C      0.003710000000     0.400470000000     0.516260000000     0.364881   
C20      C      0.901010000000     0.517660000000     0.510880000000     0.362471   
C21      C      0.998490000000     0.509720000000     0.624590000000     0.36311    
C22      C      0.017900000000     0.620950000000     0.516600000000     0.365723   
C23      C      0.016600000000     0.509200000000     0.409000000000     0.362378   
C24      C      0.117560000000     0.505420000000     0.526840000000     0.362872   
C25      C      0.402210000000     0.998080000000     0.992230000000     0.360725   
C26      C      0.513160000000     0.000320000000     0.105230000000     0.362924   
C27      C      0.519180000000     0.895430000000     0.998570000000     0.362355   
C28      C      0.620570000000     0.013580000000     0.991520000000     0.362891   
C29      C      0.502680000000     0.113260000000     0.002060000000     0.360739   
C30      C      0.512480000000     0.005190000000     0.888130000000     0.364527   
C31      C      0.503240000000     0.897830000000     0.494260000000     0.362983   
C32      C      0.398900000000     0.012930000000     0.494670000000     0.364362   
C33      C      0.499430000000     0.007070000000     0.604960000000     0.36216    
C34      C      0.515480000000     0.115330000000     0.493170000000     0.366121   
C35      C      0.514030000000     0.008060000000     0.389620000000     0.360229   
C36      C      0.617940000000     0.000280000000     0.509040000000     0.363594   
C37      C      0.390090000000     0.509960000000     0.001770000000     0.361983   
C38      C      0.493720000000     0.393800000000     0.997250000000     0.361556   
C39      C      0.499470000000     0.510240000000     0.891720000000     0.360688   
C40      C      0.608880000000     0.497710000000     0.998670000000     0.361477   
C41      C      0.499740000000     0.496130000000     0.110030000000     0.364068   
C42      C      0.505070000000     0.611900000000     0.009460000000     0.361427   
C43      C      0.505370000000     0.514800000000     0.606200000000     0.35695    
C44      C      0.512330000000     0.395780000000     0.513520000000     0.365937   
C45      C      0.398100000000     0.500620000000     0.495980000000     0.366183   
C46      C      0.511430000000     0.487540000000     0.391960000000     0.360379   
C47      C      0.617430000000     0.511050000000     0.498180000000     0.366801   
C48      C      0.501840000000     0.612850000000     0.483900000000     0.365738   
C49      C      0.527150000000     0.490110000000     0.670910000000     0.00746875 
C50      C      0.481920000000     0.548920000000     0.832840000000     0.0109168  
C51      C      0.526680000000     0.488790000000     0.827720000000     0.0967404  
C52      C      0.464300000000     0.539570000000     0.792410000000    -0.106442   
C53      C      0.539190000000     0.510340000000     0.709040000000    -0.0982668  
C54      C      0.507570000000     0.479230000000     0.787980000000    -0.131704   
C55      C      0.503050000000     0.526070000000     0.729880000000     0.0135861  
C56      C      0.493160000000     0.516240000000     0.767690000000     0.0285292  
C57      C      0.469240000000     0.537080000000     0.665160000000     0.00655274 
C58      C      0.480030000000     0.555170000000     0.705080000000    -0.0985877  
C59      C      0.567200000000     0.508200000000     0.822280000000    -0.193224   
C60      C      0.494720000000     0.446200000000     0.334360000000     0.00700383 
C61      C      0.528290000000     0.515300000000     0.174140000000     0.0118487  
C62      C      0.467200000000     0.471650000000     0.170440000000     0.0944702  
C63      C      0.544350000000     0.489230000000     0.206890000000    -0.10592    
C64      C      0.475890000000     0.456630000000     0.294690000000    -0.0980169  
C65      C      0.482900000000     0.447540000000     0.205540000000    -0.130772   
C66      C      0.504110000000     0.480270000000     0.269300000000     0.0132657  
C67      C      0.510460000000     0.472350000000     0.230390000000     0.0276365  
C68      C      0.541970000000     0.503050000000     0.327760000000     0.00846037 
C69      C      0.521590000000     0.515770000000     0.289980000000    -0.0986608  
C70      C      0.434930000000     0.500560000000     0.183450000000    -0.192117   
C71      C      0.465050000000     0.836590000000     0.485630000000     0.0080194  
C72      C      0.532800000000     0.672760000000     0.457520000000     0.0136098  
C73      C      0.462960000000     0.674600000000     0.484650000000     0.0952784  
C74      C      0.542720000000     0.711260000000     0.478390000000    -0.106571   
C75      C      0.471890000000     0.798740000000     0.462240000000    -0.0983699  
C76      C      0.471280000000     0.715640000000     0.501990000000    -0.130382   
C77      C      0.506810000000     0.775780000000     0.477900000000     0.0141868  
C78      C      0.505920000000     0.735990000000     0.482440000000     0.027661   
C79      C      0.536010000000     0.834900000000     0.508720000000     0.00939903 
C80      C      0.544320000000     0.799330000000     0.482530000000    -0.0995058  
C81      C      0.439220000000     0.678000000000     0.446470000000    -0.193036   
C82      C      0.478260000000     0.331430000000     0.512220000000     0.00973705 
C83      C      0.553070000000     0.175810000000     0.478140000000     0.0124124  
C84      C      0.480130000000     0.178840000000     0.496150000000     0.0967479  
C85      C      0.561420000000     0.211810000000     0.504120000000    -0.107044   
C86      C      0.488680000000     0.297740000000     0.484680000000    -0.0985983  
C87      C      0.488380000000     0.215190000000     0.521390000000    -0.131966   
C88      C      0.524680000000     0.276160000000     0.499850000000     0.013376   
C89      C      0.524670000000     0.236810000000     0.507220000000     0.0292177  
C90      C      0.549140000000     0.336240000000     0.534070000000     0.00807446 
C91      C      0.560530000000     0.301840000000     0.506990000000    -0.0988515  
C92      C      0.462600000000     0.190400000000     0.456270000000    -0.193641   
C93      C      0.528390000000     0.670810000000     0.045570000000     0.0066297  
C94      C      0.494440000000     0.830460000000     0.976680000000     0.011719   
C95      C      0.554410000000     0.835660000000     0.021480000000     0.0943385  
C96      C      0.479630000000     0.795820000000     0.001010000000    -0.105769   
C97      C      0.549580000000     0.708580000000     0.032390000000    -0.0982378  
C98      C      0.540490000000     0.798310000000     0.043420000000    -0.130846   
C99      C      0.521950000000     0.734470000000     0.008660000000     0.0134183  
C100     C      0.514400000000     0.773160000000     0.017330000000     0.0278986  
C101     C      0.480470000000     0.677450000000     0.989100000000     0.00782997 
C102     C      0.503520000000     0.713010000000     0.974270000000    -0.0986255  
C103     C      0.587990000000     0.826030000000     0.992820000000    -0.192189   
C104     C      0.468730000000     0.172850000000     0.026860000000     0.00638979 
C105     C      0.519520000000     0.330130000000     0.973050000000     0.01098    
C106     C      0.468110000000     0.333120000000     0.028290000000     0.0954745  
C107     C      0.500360000000     0.291860000000     0.959000000000    -0.106286   
C108     C      0.482120000000     0.212940000000     0.042930000000    -0.0983927  
C109     C      0.451220000000     0.293800000000     0.013220000000    -0.131783   
C110     C      0.500350000000     0.236970000000     0.010100000000     0.0143178  
C111     C      0.483640000000     0.270090000000     0.993970000000     0.0295305  
C112     C      0.522520000000     0.177610000000     0.974730000000     0.00736896 
C113     C      0.535940000000     0.216310000000     0.993170000000    -0.0991443  
C114     C      0.492640000000     0.327010000000     0.065650000000    -0.192602   
C115     C      0.498430000000     0.970020000000     0.667520000000     0.00843672 
C116     C      0.527150000000     0.041210000000     0.827030000000     0.0125831  
C117     C      0.507790000000     0.968730000000     0.825340000000     0.0961473  
C118     C      0.501220000000     0.049430000000     0.791240000000    -0.106932   
C119     C      0.521330000000     0.977350000000     0.705370000000    -0.0980909  
C120     C      0.483480000000     0.976730000000     0.788170000000    -0.13133    
C121     C      0.505140000000     0.012840000000     0.727030000000     0.0134952  
C122     C      0.498340000000     0.012680000000     0.766420000000     0.0284362  
C123     C      0.478350000000     0.041460000000     0.665280000000     0.00865416 
C124     C      0.501940000000     0.049950000000     0.702620000000    -0.099024   
C125     C      0.547610000000     0.949870000000     0.815080000000    -0.193118   
C126     C      0.550060000000     0.026610000000     0.329520000000     0.00844872 
C127     C      0.477730000000     0.002890000000     0.168640000000     0.0118023  
C128     C      0.550210000000     0.983270000000     0.165240000000     0.0971887  
C129     C      0.485770000000     0.025730000000     0.206390000000    -0.106111   
C130     C      0.558550000000     0.004020000000     0.291550000000    -0.0990733  
C131     C      0.558350000000     0.007030000000     0.202880000000    -0.132524   
C132     C      0.521500000000     0.001740000000     0.266910000000     0.0132991  
C133     C      0.521440000000     0.009500000000     0.227670000000     0.0282376  
C134     C      0.478350000000     0.006410000000     0.326460000000     0.00750172 
C135     C      0.486020000000     0.984760000000     0.287960000000    -0.0980726  
C136     C      0.546840000000     0.939000000000     0.173860000000    -0.193213   
C137     C      0.840360000000     0.555380000000     0.523300000000     0.00907317 
C138     C      0.682120000000     0.479300000000     0.507850000000     0.0126016  
C139     C      0.676630000000     0.548350000000     0.478670000000     0.0980787  
C140     C      0.719300000000     0.491710000000     0.529840000000    -0.106531   
C141     C      0.802990000000     0.562380000000     0.499070000000    -0.0994033  
C142     C      0.713250000000     0.561080000000     0.502250000000    -0.132736   
C143     C      0.778220000000     0.525450000000     0.499610000000     0.0139996  
C144     C      0.739380000000     0.525810000000     0.509510000000     0.0288289  
C145     C      0.837720000000     0.482450000000     0.507460000000     0.00812639 
C146     C      0.799090000000     0.488800000000     0.485340000000    -0.0986894  
C147     C      0.687010000000     0.539660000000     0.435650000000    -0.193777   
C148     C      0.177630000000     0.470180000000     0.548400000000     0.00823332 
C149     C      0.334770000000     0.536190000000     0.500870000000     0.0136573  
C150     C      0.336610000000     0.462870000000     0.485230000000     0.0965681  
C151     C      0.301800000000     0.529240000000     0.530360000000    -0.106633   
C152     C      0.212990000000     0.458020000000     0.522950000000    -0.0985835  
C153     C      0.302500000000     0.455880000000     0.514530000000    -0.131734   
C154     C      0.238510000000     0.493650000000     0.514650000000     0.0133824  
C155     C      0.278350000000     0.493070000000     0.519200000000     0.0284965  
C156     C      0.181690000000     0.539690000000     0.522690000000     0.0091841  
C157     C      0.217030000000     0.528710000000     0.497370000000    -0.098486   
C158     C      0.321680000000     0.463870000000     0.442720000000    -0.193021   
C159     C      0.828520000000     0.508530000000     0.040920000000     0.00786503 
C160     C      0.669990000000     0.476650000000     0.964780000000     0.0109185  
C161     C      0.672780000000     0.520230000000     0.025650000000     0.0971458  
C162     C      0.707800000000     0.455430000000     0.977970000000    -0.106617   
C163     C      0.792760000000     0.523320000000     0.018180000000    -0.0975412  
C164     C      0.708870000000     0.496880000000     0.039500000000    -0.132221   
C165     C      0.771510000000     0.488870000000     0.999380000000     0.0123951  
C166     C      0.732130000000     0.481420000000     0.004850000000     0.0289359  
C167     C      0.835910000000     0.452340000000     0.993090000000     0.00641693 
C168     C      0.797640000000     0.464820000000     0.972230000000    -0.0979482  
C169     C      0.684730000000     0.559770000000     0.007360000000    -0.192851   
C170     C      0.329320000000     0.544940000000     0.981840000000     0.00670697 
C171     C      0.176050000000     0.493680000000     0.042810000000     0.0109194  
C172     C      0.170060000000     0.545090000000     0.987650000000     0.0955834  
C173     C      0.214430000000     0.513620000000     0.055490000000    -0.106358   
C174     C      0.288410000000     0.532150000000     0.967500000000    -0.098819   
C175     C      0.209410000000     0.562830000000     0.001770000000    -0.131924   
C176     C      0.266100000000     0.513640000000     0.001270000000     0.0143538  
C177     C      0.234420000000     0.530710000000     0.019730000000     0.0298528  
C178     C      0.327310000000     0.489530000000     0.032400000000     0.00737914 
C179     C      0.287090000000     0.477390000000     0.016270000000    -0.098838   
C180     C      0.175690000000     0.521260000000     0.949770000000    -0.192717   
C181     C      0.001990000000     0.468550000000     0.845290000000     0.00812998 
C182     C      0.975430000000     0.542580000000     0.684880000000     0.0127237  
C183     C      0.997950000000     0.471130000000     0.686220000000     0.0957708  
C184     C      0.996700000000     0.550520000000     0.723660000000    -0.106593   
C185     C      0.977470000000     0.476630000000     0.808530000000    -0.0983463  
C186     C      0.017280000000     0.478350000000     0.726340000000    -0.13093    
C187     C      0.992490000000     0.512680000000     0.787000000000     0.0137285  
C188     C      0.999100000000     0.513100000000     0.747570000000     0.028072   
C189     C      0.022110000000     0.540140000000     0.847680000000     0.00853042 
C190     C      0.996120000000     0.549230000000     0.812080000000    -0.0992585  
C191     C      0.958080000000     0.450250000000     0.690940000000    -0.193242   
C192     C      0.003770000000     0.470230000000     0.188230000000     0.00860882 
C193     C      0.036390000000     0.542200000000     0.347690000000     0.0129256  
C194     C      0.011800000000     0.471330000000     0.347270000000     0.0956276  
C195     C      0.012130000000     0.551300000000     0.310860000000    -0.106644   
C196     C      0.027550000000     0.478810000000     0.225300000000    -0.0982723  
C197     C      0.989880000000     0.479540000000     0.308700000000    -0.130898   
C198     C      0.011090000000     0.514050000000     0.247080000000     0.0138651  
C199     C      0.007230000000     0.514260000000     0.286800000000     0.0280773  
C200     C      0.979940000000     0.540690000000     0.186610000000     0.00885573 
C201     C      0.005340000000     0.550670000000     0.222500000000    -0.0991633  
C202     C      0.050600000000     0.449390000000     0.339510000000    -0.193068   
C203     C      0.054430000000     0.680620000000     0.495680000000     0.00754289 
C204     C      0.980560000000     0.840300000000     0.521180000000     0.0124744  
C205     C      0.025170000000     0.844230000000     0.461430000000     0.0945583  
C206     C      0.003530000000     0.804730000000     0.535880000000    -0.105946   
C207     C      0.039840000000     0.715960000000     0.471680000000    -0.0983954  
C208     C      0.045760000000     0.805750000000     0.474430000000    -0.130582   
C209     C      0.013500000000     0.741980000000     0.496720000000     0.0133205  
C210     C      0.019610000000     0.781560000000     0.501440000000     0.0276598  
C211     C      0.995730000000     0.686200000000     0.540710000000     0.00846023 
C212     C      0.979640000000     0.719830000000     0.515710000000    -0.098652   
C213     C      0.995080000000     0.836370000000     0.428680000000    -0.192523   
C214     C      0.971890000000     0.339730000000     0.491420000000     0.00660878 
C215     C      0.032090000000     0.184560000000     0.532880000000     0.011486   
C216     C      0.977490000000     0.182840000000     0.480760000000     0.0950091  
C217     C      0.012140000000     0.220480000000     0.551070000000    -0.106638   
C218     C      0.989080000000     0.302750000000     0.472190000000    -0.0981884  
C219     C      0.960440000000     0.220660000000     0.499190000000    -0.131633   
C220     C      0.008810000000     0.278080000000     0.503530000000     0.0136265  
C221     C      0.993160000000     0.243990000000     0.518550000000     0.0299073  
C222     C      0.026290000000     0.336530000000     0.542900000000     0.00718072 
C223     C      0.042770000000     0.300170000000     0.522130000000    -0.0985188  
C224     C      0.999720000000     0.191930000000     0.442610000000    -0.192121   
C225     C      0.836010000000     0.035740000000     0.502280000000     0.00866483 
C226     C      0.676660000000     0.967580000000     0.537520000000     0.0105009  
C227     C      0.683550000000     0.024390000000     0.488770000000     0.0976565  
C228     C      0.714000000000     0.981690000000     0.559020000000    -0.105998   
C229     C      0.800720000000     0.011820000000     0.488480000000    -0.0989339  
C230     C      0.718690000000     0.039340000000     0.512740000000    -0.1324     
C231     C      0.778750000000     0.996210000000     0.523880000000     0.0136889  
C232     C      0.740140000000     0.005230000000     0.531640000000     0.0285196  
C233     C      0.842670000000     0.991210000000     0.561290000000     0.00695589 
C234     C      0.804050000000     0.970140000000     0.549920000000    -0.0985663  
C235     C      0.696860000000     0.002580000000     0.451620000000    -0.193958   
C236     C      0.335210000000     0.990080000000     0.467250000000     0.00744542 
C237     C      0.182300000000     0.038740000000     0.529910000000     0.0108801  
C238     C      0.180360000000     0.984630000000     0.477420000000     0.096275   
C239     C      0.218920000000     0.055810000000     0.509950000000    -0.106501   
C240     C      0.298680000000     0.973520000000     0.487810000000    -0.0982564  
C241     C      0.217830000000     0.002800000000     0.459460000000    -0.132322   
C242     C      0.276250000000     0.007340000000     0.506270000000     0.0136337  
C243     C      0.241850000000     0.022500000000     0.491320000000     0.0298914  
C244     C      0.337590000000     0.044890000000     0.518130000000     0.00718411 
C245     C      0.300820000000     0.027400000000     0.537520000000    -0.0987867  
C246     C      0.189860000000     0.947270000000     0.500910000000    -0.192967   
C247     C      0.970710000000     0.838190000000     0.048310000000     0.00667129 
C248     C      0.011000000000     0.678600000000     0.988780000000     0.0120229  
C249     C      0.950910000000     0.673030000000     0.033440000000     0.0944004  
C250     C      0.023510000000     0.715620000000     0.010750000000    -0.105878   
C251     C      0.948860000000     0.801020000000     0.034660000000    -0.0985152  
C252     C      0.962460000000     0.712580000000     0.052770000000    -0.131042   
C253     C      0.977070000000     0.774290000000     0.012730000000     0.0136911  
C254     C      0.987260000000     0.737250000000     0.025050000000     0.0284152  
C255     C      0.019600000000     0.830060000000     0.992520000000     0.00780417 
C256     C      0.995990000000     0.794690000000     0.978030000000    -0.0988434  
C257     C      0.917090000000     0.678660000000     0.004010000000    -0.191847   
C258     C      0.044440000000     0.171620000000     0.053110000000     0.00632634 
C259     C      0.999620000000     0.329700000000     0.992050000000     0.0116635  
C260     C      0.055730000000     0.338040000000     0.041300000000     0.0942308  
C261     C      0.987050000000     0.292330000000     0.013440000000    -0.105899   
C262     C      0.064520000000     0.210760000000     0.042140000000    -0.0985475  
C263     C      0.044220000000     0.298220000000     0.060120000000    -0.13103    
C264     C      0.036450000000     0.236290000000     0.018620000000     0.0139712  
C265     C      0.023010000000     0.272390000000     0.030640000000     0.0284301  
C266     C      0.998660000000     0.179130000000     0.994480000000     0.00800061 
C267     C      0.021620000000     0.215650000000     0.982260000000    -0.0990456  
C268     C      0.092160000000     0.333540000000     0.014910000000    -0.191864   
C269     C      0.679730000000     0.039840000000     0.957760000000     0.00662883 
C270     C      0.834070000000     0.995560000000     0.022030000000     0.0124676  
C271     C      0.843150000000     0.054430000000     0.976060000000     0.0943504  
C272     C      0.799180000000     0.982350000000     0.997140000000    -0.106397   
C273     C      0.717250000000     0.060620000000     0.972340000000    -0.0987495  
C274     C      0.805350000000     0.041800000000     0.954010000000    -0.131146   
C275     C      0.742870000000     0.031400000000     0.994220000000     0.0139554  
C276     C      0.778710000000     0.018360000000     0.980990000000     0.0287068  
C277     C      0.686070000000     0.990230000000     0.013280000000     0.00878634 
C278     C      0.721470000000     0.013210000000     0.028630000000    -0.099467   
C279     C      0.834930000000     0.089440000000     0.003330000000    -0.191904   
C280     C      0.342230000000     0.978070000000     0.955720000000     0.00674657 
C281     C      0.183570000000     0.013050000000     0.027700000000     0.0116182  
C282     C      0.175690000000     0.957150000000     0.978440000000     0.0941425  
C283     C      0.218960000000     0.028060000000     0.004540000000    -0.105996   
C284     C      0.303580000000     0.957540000000     0.967610000000    -0.0983484  
C285     C      0.213970000000     0.970790000000     0.957780000000    -0.130803   
C286     C      0.278770000000     0.984260000000     0.993410000000     0.0134921  
C287     C      0.240200000000     0.993720000000     0.985710000000     0.028171   
C288     C      0.337360000000     0.022200000000     0.015360000000     0.00796713 
C289     C      0.301140000000     0.999300000000     0.028830000000    -0.0982037  
C290     C      0.183420000000     0.920990000000     0.004360000000    -0.192089   
C291     C      0.048980000000     0.039180000000     0.676830000000     0.00856835 
C292     C      0.011310000000     0.969580000000     0.837280000000     0.0125732  
C293     C      0.997000000000     0.043160000000     0.838910000000     0.0968261  
C294     C      0.037380000000     0.975370000000     0.801230000000    -0.106114   
C295     C      0.026680000000     0.048850000000     0.714630000000    -0.0983409  
C296     C      0.023640000000     0.049020000000     0.802760000000    -0.131889   
C297     C      0.020830000000     0.011840000000     0.738750000000     0.0129992  
C298     C      0.025230000000     0.011710000000     0.778520000000     0.0280447  
C299     C      0.023710000000     0.969560000000     0.678120000000     0.00849984 
C300     C      0.002360000000     0.977560000000     0.716810000000    -0.0981029  
C301     C      0.953140000000     0.042820000000     0.827570000000    -0.193178   
C302     C      0.041360000000     0.005720000000     0.181170000000     0.00793211 
C303     C      0.968840000000     0.038740000000     0.339890000000     0.012245   
C304     C      0.040520000000     0.016470000000     0.336880000000     0.0951848  
C305     C      0.959890000000     0.016540000000     0.301760000000    -0.106808   
C306     C      0.034110000000     0.033100000000     0.215940000000    -0.0982336  
C307     C      0.031750000000     0.995090000000     0.298230000000    -0.130746   
C308     C      0.997250000000     0.020840000000     0.237900000000     0.0133749  
C309     C      0.996850000000     0.013120000000     0.277140000000     0.0280494  
C310     C      0.968500000000     0.990440000000     0.178080000000     0.00830151 
C311     C      0.960620000000     0.018250000000     0.212650000000    -0.0992121  
C312     C      0.061000000000     0.056060000000     0.329350000000    -0.19246    
H1       H      0.557930000000     0.490510000000     0.726670000000     0.0423341  
H2       H      0.504560000000     0.572310000000     0.829240000000     0.0287262  
H3       H      0.444970000000     0.515540000000     0.669720000000     0.0324686  
H4       H      0.451810000000     0.564460000000     0.718410000000     0.0431275  
H5       H      0.456340000000     0.568360000000     0.779520000000     0.0446372  
H6       H      0.527230000000     0.460310000000     0.770300000000     0.0519142  
H7       H      0.554420000000     0.480590000000     0.655510000000     0.0407817  
H8       H      0.458060000000     0.561590000000     0.851280000000     0.0399897  
H9       H      0.498280000000     0.581940000000     0.700460000000     0.0500248  
H10      H      0.481320000000     0.460450000000     0.793670000000     0.058713   
H11      H      0.457390000000     0.560940000000     0.646210000000     0.0409079  
H12      H      0.558530000000     0.535700000000     0.701650000000     0.051322   
H13      H      0.436780000000     0.522210000000     0.796080000000     0.0522703  
H14      H      0.531800000000     0.460130000000     0.842690000000     0.0203083  
H15      H      0.509940000000     0.463200000000     0.678110000000     0.0323415  
H16      H      0.564660000000     0.536510000000     0.806220000000     0.0701131  
H17      H      0.587110000000     0.488360000000     0.805600000000     0.0633747  
H18      H      0.580790000000     0.513980000000     0.851340000000     0.0761026  
H19      H      0.467470000000     0.428110000000     0.281450000000     0.0420437  
H20      H      0.513740000000     0.541420000000     0.187420000000     0.0279807  
H21      H      0.567630000000     0.484140000000     0.320140000000     0.0297751  
H22      H      0.542140000000     0.533640000000     0.272300000000     0.0429672  
H23      H      0.566840000000     0.505070000000     0.224210000000     0.044656   
H24      H      0.457140000000     0.435540000000     0.221430000000     0.0501411  
H25      H      0.471560000000     0.433370000000     0.353530000000     0.0397907  
H26      H      0.553610000000     0.526160000000     0.156520000000     0.0391462  
H27      H      0.497020000000     0.536010000000     0.297650000000     0.0519276  
H28      H      0.499650000000     0.421810000000     0.194230000000     0.0556896  
H29      H      0.553500000000     0.529730000000     0.342700000000     0.0395755  
H30      H      0.448640000000     0.474120000000     0.299580000000     0.0491935  
H31      H      0.560640000000     0.464360000000     0.193210000000     0.0530327  
H32      H      0.452850000000     0.450180000000     0.150370000000     0.0206974  
H33      H      0.517190000000     0.422890000000     0.329340000000     0.0303769  
H34      H      0.446340000000     0.521740000000     0.205510000000     0.0697059  
H35      H      0.409690000000     0.484330000000     0.196460000000     0.0628401  
H36      H      0.423920000000     0.517320000000     0.157730000000     0.0747958  
H37      H      0.444190000000     0.781510000000     0.461140000000     0.042101   
H38      H      0.524400000000     0.679240000000     0.426670000000     0.028641   
H39      H      0.529040000000     0.824440000000     0.538860000000     0.03266    
H40      H      0.568270000000     0.782250000000     0.496790000000     0.0432914  
H41      H      0.565560000000     0.726280000000     0.460440000000     0.0445273  
H42      H      0.443880000000     0.733410000000     0.502200000000     0.0513674  
H43      H      0.443430000000     0.855300000000     0.469730000000     0.039041   
H44      H      0.559990000000     0.654460000000     0.456730000000     0.0379293  
H45      H      0.554800000000     0.809270000000     0.453270000000     0.0511033  
H46      H      0.479190000000     0.711720000000     0.533380000000     0.0587457  
H47      H      0.563310000000     0.852980000000     0.510350000000     0.0385115  
H48      H      0.478590000000     0.806960000000     0.431400000000     0.0514309  
H49      H      0.555160000000     0.705040000000     0.507910000000     0.0528133  
H50      H      0.443850000000     0.658710000000     0.505940000000     0.0205003  
H51      H      0.451430000000     0.828460000000     0.514170000000     0.0294711  
H52      H      0.455080000000     0.696120000000     0.424430000000     0.0692303  
H53      H      0.410120000000     0.691790000000     0.452320000000     0.0623521  
H54      H      0.434000000000     0.648270000000     0.433970000000     0.0728195  
H55      H      0.462630000000     0.278720000000     0.479770000000     0.0423227  
H56      H      0.549790000000     0.185730000000     0.447250000000     0.0291571  
H57      H      0.543080000000     0.324350000000     0.563870000000     0.0313435  
H58      H      0.584990000000     0.285680000000     0.521410000000     0.0431872  
H59      H      0.586430000000     0.227950000000     0.490610000000     0.0448264  
H60      H      0.461660000000     0.233780000000     0.524030000000     0.0520476  
H61      H      0.453150000000     0.348330000000     0.499770000000     0.0389109  
H62      H      0.579170000000     0.156040000000     0.479370000000     0.0379287  
H63      H      0.571390000000     0.313470000000     0.478510000000     0.0511913  
H64      H      0.494530000000     0.205010000000     0.551770000000     0.0598053  
H65      H      0.574670000000     0.356630000000     0.536310000000     0.0394318  
H66      H      0.496100000000     0.310300000000     0.455500000000     0.0537396  
H67      H      0.570450000000     0.202010000000     0.533890000000     0.0524301  
H68      H      0.457010000000     0.161530000000     0.511600000000     0.0212361  
H69      H      0.468220000000     0.318680000000     0.540560000000     0.0284489  
H70      H      0.482850000000     0.209910000000     0.439650000000     0.0699047  
H71      H      0.434120000000     0.205990000000     0.460460000000     0.0626351  
H72      H      0.456960000000     0.163550000000     0.438560000000     0.0730767  
H73      H      0.560710000000     0.722530000000     0.059470000000     0.0420529  
H74      H      0.510190000000     0.818980000000     0.950480000000     0.0279436  
H75      H      0.455350000000     0.687950000000     0.007260000000     0.0311564  
H76      H      0.484790000000     0.731210000000     0.954960000000     0.0429916  
H77      H      0.458230000000     0.778170000000     0.984060000000     0.0449942  
H78      H      0.567040000000     0.783180000000     0.054620000000     0.0502004  
H79      H      0.550620000000     0.650700000000     0.058660000000     0.0399703  
H80      H      0.468400000000     0.847190000000     0.966020000000     0.0394973  
H81      H      0.527700000000     0.702290000000     0.955000000000     0.0515027  
H82      H      0.523050000000     0.807310000000     0.069520000000     0.0559995  
H83      H      0.468050000000     0.661690000000     0.963350000000     0.0403148  
H84      H      0.575450000000     0.700710000000     0.013980000000     0.0489636  
H85      H      0.462350000000     0.807660000000     0.026090000000     0.0535739  
H86      H      0.567040000000     0.855590000000     0.044120000000     0.0203904  
H87      H      0.507220000000     0.678670000000     0.069230000000     0.0309616  
H88      H      0.578410000000     0.804220000000     0.970520000000     0.0693139  
H89      H      0.613720000000     0.813870000000     0.008920000000     0.0626545  
H90      H      0.597630000000     0.853240000000     0.977520000000     0.0742234  
H91      H      0.457150000000     0.226820000000     0.058270000000     0.0420711  
H92      H      0.546360000000     0.322810000000     0.990290000000     0.029392   
H93      H      0.503620000000     0.184210000000     0.948900000000     0.0324379  
H94      H      0.553460000000     0.233690000000     0.972100000000     0.0431606  
H95      H      0.521000000000     0.274790000000     0.940630000000     0.0451638  
H96      H      0.434860000000     0.278840000000     0.036830000000     0.0511115  
H97      H      0.459460000000     0.154200000000     0.052010000000     0.0402001  
H98      H      0.529270000000     0.346960000000     0.946830000000     0.0392578  
H99      H      0.556850000000     0.209490000000     0.017360000000     0.05111    
H100     H      0.428420000000     0.300440000000     0.990730000000     0.0570126  
H101     H      0.549140000000     0.161980000000     0.963830000000     0.0408608  
H102     H      0.504840000000     0.207880000000     0.065890000000     0.0494565  
H103     H      0.475780000000     0.299540000000     0.938810000000     0.0526954  
H104     H      0.442280000000     0.351490000000     0.036690000000     0.0209182  
H105     H      0.442300000000     0.177500000000     0.008130000000     0.0324182  
H106     H      0.519030000000     0.308630000000     0.059640000000     0.0707088  
H107     H      0.474630000000     0.312440000000     0.088650000000     0.0631949  
H108     H      0.502630000000     0.355880000000     0.077220000000     0.076771   
H109     H      0.522150000000     0.949980000000     0.722920000000     0.042366   
H110     H      0.558130000000     0.037160000000     0.817160000000     0.0289205  
H111     H      0.447140000000     0.035600000000     0.673500000000     0.0316198  
H112     H      0.486110000000     0.073920000000     0.718140000000     0.0434613  
H113     H      0.515020000000     0.074450000000     0.775480000000     0.0450336  
H114     H      0.481160000000     0.949820000000     0.770010000000     0.051746   
H115     H      0.513360000000     0.946320000000     0.650670000000     0.040168   
H116     H      0.526480000000     0.067770000000     0.846060000000     0.0393896  
H117     H      0.531960000000     0.060500000000     0.694870000000     0.0513129  
H118     H      0.452700000000     0.983120000000     0.797400000000     0.0589378  
H119     H      0.478810000000     0.068350000000     0.646700000000     0.0402179  
H120     H      0.552510000000     0.983760000000     0.697610000000     0.0522007  
H121     H      0.471240000000     0.058470000000     0.800840000000     0.0529571  
H122     H      0.491170000000     0.946620000000     0.842820000000     0.0209374  
H123     H      0.468560000000     0.959100000000     0.675420000000     0.0297437  
H124     H      0.565220000000     0.969180000000     0.795510000000     0.0697687  
H125     H      0.542930000000     0.921210000000     0.800110000000     0.0627482  
H126     H      0.564720000000     0.944390000000     0.842310000000     0.0732009  
H127     H      0.582730000000     0.020060000000     0.276540000000     0.0427145  
H128     H      0.465780000000     0.973500000000     0.176610000000     0.026988   
H129     H      0.466720000000     0.036190000000     0.319430000000     0.0297313  
H130     H      0.458700000000     0.984320000000     0.270240000000     0.0428386  
H131     H      0.458640000000     0.026820000000     0.224390000000     0.0449968  
H132     H      0.583350000000     0.992750000000     0.218340000000     0.0510495  
H133     H      0.576800000000     0.025100000000     0.348340000000     0.0383904  
H134     H      0.454270000000     0.018410000000     0.151950000000     0.0391234  
H135     H      0.492600000000     0.953460000000     0.294820000000     0.0515985  
H136     H      0.567740000000     0.037330000000     0.194910000000     0.0574403  
H137     H      0.454920000000     0.990540000000     0.342870000000     0.0403265  
H138     H      0.568900000000     0.973790000000     0.298510000000     0.0499972  
H139     H      0.492270000000     0.056790000000     0.198450000000     0.0538686  
H140     H      0.576530000000     0.987240000000     0.146150000000     0.0197096  
H141     H      0.544810000000     0.058080000000     0.322210000000     0.0320725  
H142     H      0.522540000000     0.932790000000     0.194790000000     0.0696981  
H143     H      0.574840000000     0.927830000000     0.186560000000     0.0635556  
H144     H      0.541060000000     0.922670000000     0.146240000000     0.0773324  
H145     H      0.787610000000     0.587990000000     0.512280000000     0.0430818  
H146     H      0.691140000000     0.463620000000     0.480690000000     0.0263542  
H147     H      0.830530000000     0.471980000000     0.537520000000     0.0294804  
H148     H      0.780830000000     0.461800000000     0.486910000000     0.0428649  
H149     H      0.738730000000     0.465900000000     0.534430000000     0.0454131  
H150     H      0.728300000000     0.584940000000     0.485790000000     0.0510036  
H151     H      0.859660000000     0.581700000000     0.520410000000     0.0380491  
H152     H      0.665670000000     0.457750000000     0.526120000000     0.0387201  
H153     H      0.806060000000     0.493020000000     0.453770000000     0.0513925  
H154     H      0.703820000000     0.573420000000     0.530950000000     0.057603   
H155     H      0.854610000000     0.458580000000     0.492790000000     0.0395609  
H156     H      0.810960000000     0.569810000000     0.468340000000     0.0503969  
H157     H      0.710550000000     0.501700000000     0.559630000000     0.054192   
H158     H      0.656090000000     0.573930000000     0.478630000000     0.0181368  
H159     H      0.832100000000     0.552460000000     0.554750000000     0.0331126  
H160     H      0.708930000000     0.515500000000     0.433290000000     0.0701661  
H161     H      0.699390000000     0.566370000000     0.421470000000     0.0639809  
H162     H      0.660060000000     0.530960000000     0.419330000000     0.0790313  
H163     H      0.229220000000     0.434830000000     0.539270000000     0.0430422  
H164     H      0.321350000000     0.545380000000     0.472580000000     0.0250985  
H165     H      0.192880000000     0.551990000000     0.550800000000     0.0291994  
H166     H      0.235860000000     0.554920000000     0.492690000000     0.0428518  
H167     H      0.283780000000     0.556220000000     0.533770000000     0.0454529  
H168     H      0.284740000000     0.430530000000     0.503990000000     0.0508608  
H169     H      0.157550000000     0.444480000000     0.551370000000     0.0388866  
H170     H      0.353220000000     0.561180000000     0.511120000000     0.0380777  
H171     H      0.206120000000     0.520150000000     0.467830000000     0.0527353  
H172     H      0.314920000000     0.447710000000     0.543570000000     0.0575351  
H173     H      0.164650000000     0.563350000000     0.507880000000     0.0394415  
H174     H      0.202430000000     0.445370000000     0.494800000000     0.0500577  
H175     H      0.315300000000     0.523860000000     0.559570000000     0.0557448  
H176     H      0.356660000000     0.437040000000     0.487710000000     0.0190881  
H177     H      0.188520000000     0.478020000000     0.578170000000     0.0319561  
H178     H      0.299210000000     0.487250000000     0.438470000000     0.0692714  
H179     H      0.308300000000     0.435100000000     0.434830000000     0.0632574  
H180     H      0.346690000000     0.469460000000     0.422460000000     0.0760441  
H181     H      0.774490000000     0.542270000000     0.037180000000     0.0417322  
H182     H      0.678090000000     0.499080000000     0.942440000000     0.0272518  
H183     H      0.828580000000     0.428620000000     0.014340000000     0.031085   
H184     H      0.783650000000     0.437200000000     0.962130000000     0.0426303  
H185     H      0.723380000000     0.447030000000     0.950720000000     0.0442591  
H186     H      0.725940000000     0.513910000000     0.061260000000     0.0516347  
H187     H      0.843880000000     0.534330000000     0.053870000000     0.0401172  
H188     H      0.650820000000     0.454810000000     0.949770000000     0.039068   
H189     H      0.804970000000     0.482780000000     0.945990000000     0.0500499  
H190     H      0.698080000000     0.470960000000     0.056290000000     0.0586211  
H191     H      0.856140000000     0.439400000000     0.970930000000     0.0407457  
H192     H      0.803270000000     0.543070000000     0.994370000000     0.0510398  
H193     H      0.699860000000     0.428000000000     0.993850000000     0.0518146  
H194     H      0.655300000000     0.527080000000     0.052410000000     0.0203247  
H195     H      0.818180000000     0.489620000000     0.065480000000     0.0310085  
H196     H      0.703610000000     0.555480000000     0.981110000000     0.0695622  
H197     H      0.701150000000     0.577810000000     0.029060000000     0.0628022  
H198     H      0.657940000000     0.576310000000     0.998470000000     0.0750636  
H199     H      0.273910000000     0.557430000000     0.953340000000     0.0423403  
H200     H      0.183350000000     0.466810000000     0.025670000000     0.0286832  
H201     H      0.322810000000     0.507500000000     0.059290000000     0.031153   
H202     H      0.270630000000     0.459960000000     0.038160000000     0.0426597  
H203     H      0.232850000000     0.493440000000     0.073090000000     0.044576   
H204     H      0.223340000000     0.579940000000     0.978050000000     0.0511378  
H205     H      0.346590000000     0.555070000000     0.956030000000     0.0403132  
H206     H      0.160220000000     0.483930000000     0.069650000000     0.0389761  
H207     H      0.291830000000     0.456830000000     0.991340000000     0.0506552  
H208     H      0.202820000000     0.585070000000     0.024790000000     0.0567678  
H209     H      0.343300000000     0.462390000000     0.041230000000     0.0402285  
H210     H      0.292140000000     0.509840000000     0.943930000000     0.0498273  
H211     H      0.206970000000     0.537950000000     0.076010000000     0.051994   
H212     H      0.150650000000     0.570430000000     0.980220000000     0.0206179  
H213     H      0.325790000000     0.570620000000     0.001750000000     0.0323694  
H214     H      0.194530000000     0.495050000000     0.954980000000     0.070769   
H215     H      0.189550000000     0.539780000000     0.926740000000     0.0639504  
H216     H      0.146660000000     0.511070000000     0.938650000000     0.0779899  
H217     H      0.975960000000     0.449740000000     0.790260000000     0.0421693  
H218     H      0.943780000000     0.536620000000     0.690990000000     0.0292665  
H219     H      0.052790000000     0.534780000000     0.837440000000     0.0310458  
H220     H      0.010220000000     0.574140000000     0.796380000000     0.0432778  
H221     H      0.979620000000     0.573840000000     0.738910000000     0.0448498  
H222     H      0.017780000000     0.450740000000     0.743600000000     0.0515803  
H223     H      0.987580000000     0.444810000000     0.862530000000     0.0393092  
H224     H      0.976890000000     0.569860000000     0.666920000000     0.038988   
H225     H      0.966360000000     0.558680000000     0.821940000000     0.0511008  
H226     H      0.048820000000     0.485640000000     0.721220000000     0.0591182  
H227     H      0.022540000000     0.566600000000     0.866850000000     0.0394841  
H228     H      0.946630000000     0.482680000000     0.817770000000     0.0518672  
H229     H      0.026930000000     0.561710000000     0.717870000000     0.0528644  
H230     H      0.017470000000     0.450470000000     0.669960000000     0.021363   
H231     H      0.031320000000     0.457360000000     0.835900000000     0.0288466  
H232     H      0.937560000000     0.467820000000     0.709300000000     0.0697656  
H233     H      0.962280000000     0.421040000000     0.704960000000     0.0629975  
H234     H      0.944410000000     0.445570000000     0.661720000000     0.073779   
H235     H      0.029490000000     0.451770000000     0.243360000000     0.0420381  
H236     H      0.067230000000     0.535470000000     0.338920000000     0.0292533  
H237     H      0.949550000000     0.533550000000     0.196620000000     0.0322324  
H238     H      0.989860000000     0.574300000000     0.238920000000     0.0432394  
H239     H      0.028080000000     0.574600000000     0.294410000000     0.0447146  
H240     H      0.987740000000     0.452290000000     0.290950000000     0.0514877  
H241     H      0.019360000000     0.447470000000     0.170680000000     0.038926   
H242     H      0.037140000000     0.569120000000     0.366240000000     0.0373598  
H243     H      0.034510000000     0.562010000000     0.212890000000     0.0511924  
H244     H      0.958910000000     0.487310000000     0.316070000000     0.0592143  
H245     H      0.978250000000     0.567180000000     0.167530000000     0.0384052  
H246     H      0.058300000000     0.485940000000     0.216540000000     0.0521778  
H247     H      0.982640000000     0.562780000000     0.319310000000     0.0524635  
H248     H      0.992980000000     0.451080000000     0.364800000000     0.0205171  
H249     H      0.974950000000     0.457480000000     0.197220000000     0.0291453  
H250     H      0.070240000000     0.466570000000     0.319860000000     0.0693631  
H251     H      0.044540000000     0.420460000000     0.325580000000     0.0620696  
H252     H      0.066220000000     0.444010000000     0.367620000000     0.0726379  
H253     H      0.066660000000     0.730930000000     0.460810000000     0.0424858  
H254     H      0.954110000000     0.829880000000     0.504970000000     0.0274302  
H255     H      0.012980000000     0.698880000000     0.565420000000     0.0304755  
H256     H      0.959010000000     0.738000000000     0.533020000000     0.0429907  
H257     H      0.985290000000     0.787830000000     0.556750000000     0.0452119  
H258     H      0.054560000000     0.789990000000     0.447400000000     0.050522   
H259     H      0.070490000000     0.660340000000     0.475720000000     0.0405997  
H260     H      0.969910000000     0.857090000000     0.547050000000     0.039691   
H261     H      0.961270000000     0.706960000000     0.491940000000     0.0523242  
H262     H      0.073260000000     0.813220000000     0.490530000000     0.056363   
H263     H      0.970470000000     0.669720000000     0.553400000000     0.0402759  
H264     H      0.022840000000     0.705380000000     0.445890000000     0.050592   
H265     H      0.028970000000     0.815440000000     0.553470000000     0.0543547  
H266     H      0.048520000000     0.863180000000     0.448450000000     0.0209949  
H267     H      0.076080000000     0.691470000000     0.517670000000     0.0303251  
H268     H      0.972370000000     0.814870000000     0.438210000000     0.0693686  
H269     H      0.010180000000     0.824530000000     0.402290000000     0.0630631  
H270     H      0.980220000000     0.864260000000     0.420320000000     0.0743449  
H271     H      0.966120000000     0.287770000000     0.454860000000     0.0417563  
H272     H      0.057030000000     0.194550000000     0.514200000000     0.028814   
H273     H      0.007770000000     0.326810000000     0.568010000000     0.0312631  
H274     H      0.061500000000     0.282880000000     0.542210000000     0.0427259  
H275     H      0.032950000000     0.236810000000     0.569870000000     0.0449846  
H276     H      0.942360000000     0.236830000000     0.477670000000     0.0510968  
H277     H      0.959740000000     0.358900000000     0.467950000000     0.0405444  
H278     H      0.044810000000     0.166690000000     0.557070000000     0.0397227  
H279     H      0.063220000000     0.310130000000     0.498640000000     0.0503691  
H280     H      0.939010000000     0.211850000000     0.522260000000     0.056996   
H281     H      0.051450000000     0.353580000000     0.555050000000     0.0403181  
H282     H      0.011650000000     0.311940000000     0.450370000000     0.0494547  
H283     H      0.988840000000     0.210090000000     0.571560000000     0.0528018  
H284     H      0.951810000000     0.164160000000     0.472630000000     0.0209029  
H285     H      0.946850000000     0.330840000000     0.510520000000     0.0311711  
H286     H      0.025720000000     0.210970000000     0.448230000000     0.069942   
H287     H      0.979940000000     0.207030000000     0.421440000000     0.0626377  
H288     H      0.010070000000     0.164110000000     0.428970000000     0.0743971  
H289     H      0.782870000000     0.029070000000     0.467550000000     0.0422147  
H290     H      0.684910000000     0.942630000000     0.518070000000     0.0284127  
H291     H      0.835600000000     0.013850000000     0.583770000000     0.0306811  
H292     H      0.789570000000     0.961890000000     0.577800000000     0.0428189  
H293     H      0.728320000000     0.955030000000     0.570970000000     0.0443545  
H294     H      0.737290000000     0.059530000000     0.495280000000     0.0517473  
H295     H      0.851660000000     0.047180000000     0.476010000000     0.0402693  
H296     H      0.655900000000     0.955620000000     0.559730000000     0.0398163  
H297     H      0.811110000000     0.942600000000     0.533810000000     0.0501295  
H298     H      0.706990000000     0.058270000000     0.536670000000     0.0585718  
H299     H      0.862630000000     0.969450000000     0.575340000000     0.0404733  
H300     H      0.811670000000     0.986290000000     0.471230000000     0.0522784  
H301     H      0.705390000000     0.000580000000     0.584200000000     0.0514961  
H302     H      0.667180000000     0.051010000000     0.478950000000     0.0202893  
H303     H      0.825300000000     0.061490000000     0.519380000000     0.0305461  
H304     H      0.714510000000     0.976060000000     0.458950000000     0.0705284  
H305     H      0.714920000000     0.022320000000     0.432880000000     0.06332    
H306     H      0.670670000000     0.993190000000     0.434460000000     0.076605   
H307     H      0.281680000000     0.954790000000     0.467540000000     0.0418961  
H308     H      0.191800000000     0.020790000000     0.555480000000     0.0291677  
H309     H      0.328340000000     0.069410000000     0.498590000000     0.0308988  
H310     H      0.285580000000     0.050110000000     0.554930000000     0.0430855  
H311     H      0.235470000000     0.074290000000     0.530790000000     0.0448652  
H312     H      0.233680000000     0.981150000000     0.441210000000     0.0513241  
H313     H      0.352550000000     0.965020000000     0.455370000000     0.0403937  
H314     H      0.164560000000     0.063620000000     0.541550000000     0.0398428  
H315     H      0.310370000000     0.005020000000     0.559330000000     0.0513632  
H316     H      0.208530000000     0.025760000000     0.438120000000     0.0565822  
H317     H      0.356530000000     0.057700000000     0.541460000000     0.0409688  
H318     H      0.308550000000     0.953160000000     0.511390000000     0.050616   
H319     H      0.209160000000     0.076470000000     0.486590000000     0.0520696  
H320     H      0.161540000000     0.975400000000     0.452320000000     0.0203657  
H321     H      0.325540000000     0.008340000000     0.441960000000     0.0309237  
H322     H      0.208920000000     0.954010000000     0.526520000000     0.070952   
H323     H      0.205130000000     0.925450000000     0.482000000000     0.0632146  
H324     H      0.162130000000     0.933750000000     0.511760000000     0.0761854  
H325     H      0.935400000000     0.787810000000     0.061020000000     0.0423436  
H326     H      0.994930000000     0.687300000000     0.961720000000     0.0278554  
H327     H      0.044590000000     0.819370000000     0.010750000000     0.0306238  
H328     H      0.014270000000     0.775550000000     0.959140000000     0.0429269  
H329     H      0.044020000000     0.733320000000     0.992760000000     0.0450013  
H330     H      0.935060000000     0.726880000000     0.062930000000     0.0506517  
H331     H      0.948650000000     0.858980000000     0.060620000000     0.0407371  
H332     H      0.038090000000     0.662740000000     0.979480000000     0.0395262  
H333     H      0.972170000000     0.805580000000     0.958420000000     0.0516079  
H334     H      0.980240000000     0.706420000000     0.079460000000     0.0568595  
H335     H      0.032230000000     0.845380000000     0.966620000000     0.0400062  
H336     H      0.924390000000     0.809580000000     0.014720000000     0.0498512  
H337     H      0.041130000000     0.706600000000     0.036750000000     0.0537831  
H338     H      0.939280000000     0.654000000000     0.057340000000     0.0211986  
H339     H      0.990930000000     0.829890000000     0.072620000000     0.0313829  
H340     H      0.925630000000     0.699300000000     0.980240000000     0.069439   
H341     H      0.890590000000     0.690480000000     0.019080000000     0.0626969  
H342     H      0.909120000000     0.649920000000     0.990670000000     0.0743871  
H343     H      0.074820000000     0.224130000000     0.069810000000     0.0422399  
H344     H      0.017950000000     0.321490000000     0.966290000000     0.0281472  
H345     H      0.971950000000     0.188330000000     0.011040000000     0.0307656  
H346     H      0.004050000000     0.234220000000     0.962160000000     0.0429215  
H347     H      0.968750000000     0.273540000000     0.994230000000     0.044942   
H348     H      0.071100000000     0.285080000000     0.072870000000     0.0506056  
H349     H      0.067200000000     0.151570000000     0.065380000000     0.0401662  
H350     H      0.972660000000     0.344430000000     0.980750000000     0.0393865  
H351     H      0.047480000000     0.206170000000     0.964560000000     0.0517161  
H352     H      0.023900000000     0.303900000000     0.085070000000     0.0567041  
H353     H      0.988600000000     0.163900000000     0.967420000000     0.0400743  
H354     H      0.091070000000     0.204550000000     0.024070000000     0.0494518  
H355     H      0.967130000000     0.300790000000     0.037930000000     0.053581   
H356     H      0.064510000000     0.357730000000     0.065860000000     0.0213546  
H357     H      0.022800000000     0.177480000000     0.076900000000     0.0313456  
H358     H      0.086430000000     0.312540000000     0.990620000000     0.0696286  
H359     H      0.117660000000     0.322700000000     0.032260000000     0.0629255  
H360     H      0.100230000000     0.362500000000     0.002130000000     0.074555   
H361     H      0.731340000000     0.074550000000     0.946710000000     0.0422819  
H362     H      0.822930000000     0.011920000000     0.048010000000     0.0280347  
H363     H      0.696770000000     0.965180000000     0.995180000000     0.029968   
H364     H      0.740000000000     0.994750000000     0.047970000000     0.0431086  
H365     H      0.779880000000     0.961930000000     0.013570000000     0.0450085  
H366     H      0.791760000000     0.068150000000     0.940750000000     0.0504386  
H367     H      0.659470000000     0.062510000000     0.945670000000     0.0405033  
H368     H      0.849330000000     0.968810000000     0.033020000000     0.0393915  
H369     H      0.710510000000     0.037240000000     0.047910000000     0.0516434  
H370     H      0.813930000000     0.022620000000     0.929000000000     0.0558248  
H371     H      0.670030000000     0.977760000000     0.038830000000     0.0396905  
H372     H      0.708800000000     0.084780000000     0.992650000000     0.0498935  
H373     H      0.810590000000     0.964600000000     0.972200000000     0.0531118  
H374     H      0.864180000000     0.065040000000     0.953360000000     0.0202241  
H375     H      0.687950000000     0.020010000000     0.933140000000     0.0307525  
H376     H      0.812870000000     0.081630000000     0.026100000000     0.0700825  
H377     H      0.823670000000     0.114890000000     0.986230000000     0.0629823  
H378     H      0.862610000000     0.098620000000     0.018150000000     0.0750761  
H379     H      0.289050000000     0.948980000000     0.939900000000     0.04276    
H380     H      0.194260000000     0.994850000000     0.052620000000     0.0285789  
H381     H      0.327530000000     0.048870000000     0.999160000000     0.0313709  
H382     H      0.283690000000     0.017050000000     0.049680000000     0.0429361  
H383     H      0.237470000000     0.047300000000     0.023050000000     0.0452169  
H384     H      0.228020000000     0.944450000000     0.944870000000     0.0508763  
H385     H      0.361600000000     0.955970000000     0.941370000000     0.0407563  
H386     H      0.168000000000     0.038900000000     0.040310000000     0.0396099  
H387     H      0.311240000000     0.973460000000     0.046140000000     0.0520504  
H388     H      0.206040000000     0.990380000000     0.932890000000     0.0570619  
H389     H      0.353700000000     0.032180000000     0.041810000000     0.040463   
H390     H      0.310480000000     0.930160000000     0.984060000000     0.0498306  
H391     H      0.207970000000     0.047640000000     0.980800000000     0.0538678  
H392     H      0.155240000000     0.947450000000     0.954830000000     0.0215554  
H393     H      0.335200000000     0.000810000000     0.933330000000     0.0313933  
H394     H      0.205580000000     0.927630000000     0.027390000000     0.0699549  
H395     H      0.194390000000     0.896090000000     0.986290000000     0.0633179  
H396     H      0.155610000000     0.911570000000     0.018770000000     0.0753564  
H397     H      0.044660000000     0.071160000000     0.730330000000     0.0430542  
H398     H      0.981610000000     0.960050000000     0.827300000000     0.0266799  
H399     H      0.052950000000     0.956450000000     0.684990000000     0.0294747  
H400     H      0.000780000000     0.949910000000     0.733840000000     0.042871   
H401     H      0.037830000000     0.947980000000     0.783710000000     0.0450613  
H402     H      0.012100000000     0.074660000000     0.786160000000     0.0510845  
H403     H      0.050590000000     0.066380000000     0.658800000000     0.0401675  
H404     H      0.023630000000     0.945110000000     0.855090000000     0.0391241  
H405     H      0.971330000000     0.985630000000     0.710070000000     0.0520955  
H406     H      0.054000000000     0.056460000000     0.812550000000     0.0574503  
H407     H      0.006760000000     0.947320000000     0.661180000000     0.0397917  
H408     H      0.997500000000     0.061920000000     0.707520000000     0.0508082  
H409     H      0.068230000000     0.979770000000     0.811330000000     0.0542064  
H410     H      0.001640000000     0.069360000000     0.857970000000     0.019974   
H411     H      0.079660000000     0.030510000000     0.684510000000     0.0311232  
H412     H      0.946550000000     0.018950000000     0.806320000000     0.0696784  
H413     H      0.944760000000     0.071410000000     0.814150000000     0.0637771  
H414     H      0.934740000000     0.038380000000     0.854140000000     0.0769155  
H415     H      0.060890000000     0.035080000000     0.234390000000     0.041968   
H416     H      0.974150000000     0.070250000000     0.332870000000     0.0281514  
H417     H      0.971560000000     0.959940000000     0.189560000000     0.0313014  
H418     H      0.934700000000     0.006350000000     0.228540000000     0.0428251  
H419     H      0.936280000000     0.033340000000     0.286680000000     0.0443361  
H420     H      0.058860000000     0.992680000000     0.280300000000     0.0514708  
H421     H      0.066640000000     0.017150000000     0.163860000000     0.039739   
H422     H      0.942120000000     0.037390000000     0.358740000000     0.0379573  
H423     H      0.952990000000     0.048030000000     0.201520000000     0.050919   
H424     H      0.023720000000     0.964190000000     0.305370000000     0.0582378  
H425     H      0.942320000000     0.991030000000     0.158480000000     0.0400326  
H426     H      0.029270000000     0.063330000000     0.204440000000     0.0519864  
H427     H      0.948580000000     0.986620000000     0.308600000000     0.0517483  
H428     H      0.061980000000     0.997880000000     0.353170000000     0.0210704  
H429     H      0.049990000000     0.976350000000     0.192730000000     0.0294603  
H430     H      0.042430000000     0.075680000000     0.311000000000     0.0688867  
H431     H      0.089560000000     0.051300000000     0.314120000000     0.0621697  
H432     H      0.067060000000     0.071010000000     0.357680000000     0.0721431  
N1       N      0.500740000000     0.514400000000     0.851660000000    -0.176012   
N2       N      0.502620000000     0.516330000000     0.646340000000    -0.163662   
N3       N      0.499260000000     0.493430000000     0.150150000000    -0.176921   
N4       N      0.514440000000     0.480390000000     0.352520000000    -0.165258   
N5       N      0.499890000000     0.652500000000     0.477330000000    -0.177392   
N6       N      0.502280000000     0.857660000000     0.493570000000    -0.165747   
N7       N      0.516570000000     0.155450000000     0.490440000000    -0.177517   
N8       N      0.513340000000     0.356040000000     0.519370000000    -0.166439   
N9       N      0.521670000000     0.855150000000     0.000020000000    -0.176402   
N10      N      0.506120000000     0.652050000000     0.013300000000    -0.16512    
N11      N      0.492350000000     0.353430000000     0.998000000000    -0.17609    
N12      N      0.499670000000     0.153500000000     0.002970000000    -0.164523   
N13      N      0.514130000000     0.005410000000     0.848030000000    -0.177172   
N14      N      0.494190000000     0.006700000000     0.644710000000    -0.165551   
N15      N      0.514070000000     0.997440000000     0.145280000000    -0.176739   
N16      N      0.514890000000     0.010900000000     0.349610000000    -0.165156   
N17      N      0.657620000000     0.513590000000     0.496860000000    -0.178024   
N18      N      0.860790000000     0.519180000000     0.510720000000    -0.165728   
N19      N      0.357830000000     0.499810000000     0.494650000000    -0.177928   
N20      N      0.157560000000     0.504630000000     0.531290000000    -0.165827   
N21      N      0.649310000000     0.496760000000     0.997400000000    -0.176698   
N22      N      0.854270000000     0.485180000000     0.014910000000    -0.16462    
N23      N      0.151320000000     0.519970000000     0.018220000000    -0.176408   
N24      N      0.349830000000     0.513110000000     0.003450000000    -0.165008   
N25      N      0.992670000000     0.508420000000     0.664290000000    -0.176593   
N26      N      0.007850000000     0.504790000000     0.868470000000    -0.165832   
N27      N      0.019830000000     0.508210000000     0.369050000000    -0.17662    
N28      N      0.996260000000     0.506460000000     0.165580000000    -0.165493   
N29      N      0.005470000000     0.864220000000     0.494770000000    -0.176737   
N30      N      0.021770000000     0.661070000000     0.516750000000    -0.16604    
N31      N      0.003990000000     0.161730000000     0.508470000000    -0.176837   
N32      N      0.001740000000     0.360220000000     0.515790000000    -0.165939   
N33      N      0.658140000000     0.998610000000     0.513100000000    -0.176798   
N34      N      0.861410000000     0.011160000000     0.527520000000    -0.165161   
N35      N      0.159330000000     0.013440000000     0.502750000000    -0.177067   
N36      N      0.358570000000     0.014950000000     0.494370000000    -0.165776   
N37      N      0.984940000000     0.654060000000     0.013560000000    -0.176781   
N38      N      0.994420000000     0.856180000000     0.016530000000    -0.165254   
N39      N      0.022810000000     0.355500000000     0.018350000000    -0.17643    
N40      N      0.023150000000     0.153500000000     0.019740000000    -0.165009   
N41      N      0.860520000000     0.021500000000     0.999050000000    -0.177122   
N42      N      0.660800000000     0.015880000000     0.988830000000    -0.165857   
N43      N      0.157640000000     0.988910000000     0.002410000000    -0.175764   
N44      N      0.361890000000     0.997690000000     0.989170000000    -0.164633   
N45      N      0.007330000000     0.006450000000     0.859990000000    -0.177207   
N46      N      0.029890000000     0.006320000000     0.655940000000    -0.165737   
N47      N      0.003960000000     0.022640000000     0.359920000000    -0.177178   
N48      N      0.005210000000     0.001310000000     0.157420000000    -0.165448   
O1       O      0.009040000000     0.004860000000     0.008800000000    -0.368404   
O2       O      0.977590000000     0.989320000000     0.097600000000    -0.307213   
O3       O      0.102280000000     0.016960000000     0.028930000000    -0.305769   
O4       O      0.021230000000     0.911290000000     0.988620000000    -0.306913   
O5       O      0.036550000000     0.017240000000     0.100070000000    -0.305024   
O6       O      0.975990000000     0.918340000000     0.034770000000    -0.306467   
O7       O      0.095360000000     0.971930000000     0.982460000000    -0.305958   
O8       O      0.994460000000     0.034910000000     0.919240000000    -0.309636   
O9       O      0.040940000000     0.091160000000     0.038750000000    -0.304445   
O10      O      0.023460000000     0.976540000000     0.918030000000    -0.306045   
O11      O      0.998010000000     0.098490000000     0.990480000000    -0.308498   
O12      O      0.923270000000     0.039760000000     0.982180000000    -0.309207   
O13      O      0.915040000000     0.991840000000     0.025250000000    -0.308497   
O14      O      0.009790000000     0.012550000000     0.508520000000    -0.369393   
O15      O      0.977290000000     0.034500000000     0.420390000000    -0.308197   
O16      O      0.099550000000     0.990050000000     0.482300000000    -0.30971    
O17      O      0.030730000000     0.103800000000     0.529800000000    -0.308853   
O18      O      0.032190000000     0.999620000000     0.416320000000    -0.309054   
O19      O      0.981240000000     0.101800000000     0.487600000000    -0.308118   
O20      O      0.100980000000     0.038070000000     0.526040000000    -0.307522   
O21      O      0.002390000000     0.981900000000     0.599620000000    -0.305269   
O22      O      0.029180000000     0.924480000000     0.475990000000    -0.308105   
O23      O      0.038180000000     0.036280000000     0.596670000000    -0.307778   
O24      O      0.988630000000     0.920990000000     0.526730000000    -0.307406   
O25      O      0.923120000000     0.989060000000     0.544090000000    -0.304189   
O26      O      0.916790000000     0.031550000000     0.495270000000    -0.307407   
O27      O      0.002520000000     0.504430000000     0.017080000000    -0.366594   
O28      O      0.037030000000     0.417300000000     0.040980000000    -0.308119   
O29      O      0.916030000000     0.469970000000     0.992210000000    -0.304321   
O30      O      0.976640000000     0.529370000000     0.105830000000    -0.305771   
O31      O      0.991570000000     0.410590000000     0.995080000000    -0.306305   
O32      O      0.022350000000     0.482750000000     0.108520000000    -0.304947   
O33      O      0.909630000000     0.516230000000     0.037580000000    -0.305535   
O34      O      0.016970000000     0.597830000000     0.994820000000    -0.308693   
O35      O      0.987250000000     0.476690000000     0.926010000000    -0.304998   
O36      O      0.966860000000     0.593050000000     0.035810000000    -0.308637   
O37      O      0.022810000000     0.531320000000     0.928000000000    -0.30905    
O38      O      0.090170000000     0.536330000000     0.995260000000    -0.309676   
O39      O      0.094750000000     0.492990000000     0.043530000000    -0.305917   
O40      O      0.009390000000     0.510680000000     0.516960000000    -0.367561   
O41      O      0.026720000000     0.417780000000     0.540140000000    -0.308093   
O42      O      0.918770000000     0.490800000000     0.491630000000    -0.305325   
O43      O      0.981830000000     0.536620000000     0.604460000000    -0.306636   
O44      O      0.982270000000     0.420440000000     0.493040000000    -0.30836    
O45      O      0.019820000000     0.483640000000     0.608040000000    -0.306206   
O46      O      0.920210000000     0.542430000000     0.531430000000    -0.307138   
O47      O      0.040460000000     0.600200000000     0.495190000000    -0.308585   
O48      O      0.992090000000     0.486500000000     0.426160000000    -0.306201   
O49      O      0.992050000000     0.604520000000     0.538100000000    -0.307748   
O50      O      0.038510000000     0.532520000000     0.428620000000    -0.306687   
O51      O      0.102140000000     0.529660000000     0.502780000000    -0.306561   
O52      O      0.096130000000     0.482300000000     0.547170000000    -0.305897   
O53      O      0.511320000000     0.004410000000     0.996710000000    -0.368097   
O54      O      0.423030000000     0.977390000000     0.968850000000    -0.30428    
O55      O      0.484780000000     0.018180000000     0.088280000000    -0.305135   
O56      O      0.542780000000     0.916290000000     0.018930000000    -0.308565   
O57      O      0.418680000000     0.019750000000     0.017990000000    -0.30525    
O58      O      0.493610000000     0.911790000000     0.976550000000    -0.306845   
O59      O      0.540620000000     0.984500000000     0.085200000000    -0.309498   
O60      O      0.599010000000     0.035490000000     0.970100000000    -0.307183   
O61      O      0.481510000000     0.092130000000     0.024800000000    -0.303034   
O62      O      0.604910000000     0.989110000000     0.015120000000    -0.308609   
O63      O      0.526140000000     0.097170000000     0.977700000000    -0.307437   
O64      O      0.528060000000     0.033360000000     0.907250000000    -0.308772   
O65      O      0.495920000000     0.976690000000     0.906030000000    -0.307125   
O66      O      0.508620000000     0.006480000000     0.497360000000    -0.369237   
O67      O      0.527410000000     0.915080000000     0.517080000000    -0.307983   
O68      O      0.416600000000     0.988980000000     0.472000000000    -0.307206   
O69      O      0.485020000000     0.035260000000     0.584890000000    -0.307328   
O70      O      0.479750000000     0.917580000000     0.472660000000    -0.304306   
O71      O      0.517870000000     0.978940000000     0.588280000000    -0.305228   
O72      O      0.418530000000     0.035210000000     0.517420000000    -0.307835   
O73      O      0.541480000000     0.094700000000     0.475720000000    -0.30723    
O74      O      0.486050000000     0.989360000000     0.406350000000    -0.304493   
O75      O      0.488090000000     0.098930000000     0.512730000000    -0.3101     
O76      O      0.540620000000     0.025260000000     0.409790000000    -0.306548   
O77      O      0.602880000000     0.022760000000     0.483190000000    -0.309925   
O78      O      0.595840000000     0.979130000000     0.530700000000    -0.306132   
O79      O      0.499600000000     0.503040000000     0.000820000000    -0.36546    
O80      O      0.409870000000     0.533050000000     0.979790000000    -0.305341   
O81      O      0.471810000000     0.413370000000     0.020490000000    -0.309144   
O82      O      0.519780000000     0.483390000000     0.908400000000    -0.305551   
O83      O      0.407600000000     0.484600000000     0.023040000000    -0.308041   
O84      O      0.478890000000     0.534020000000     0.912160000000    -0.305984   
O85      O      0.517520000000     0.411510000000     0.974200000000    -0.304336   
O86      O      0.591610000000     0.519550000000     0.023760000000    -0.307744   
O87      O      0.474300000000     0.477350000000     0.089960000000    -0.310042   
O88      O      0.588800000000     0.477180000000     0.974520000000    -0.305643   
O89      O      0.525330000000     0.517610000000     0.092980000000    -0.306948   
O90      O      0.526870000000     0.590460000000     0.031170000000    -0.306188   
O91      O      0.481770000000     0.596220000000     0.984640000000    -0.306215   
O92      O      0.507710000000     0.504230000000     0.498730000000    -0.367238   
O93      O      0.481400000000     0.534750000000     0.585150000000    -0.302656   
O94      O      0.537480000000     0.417730000000     0.530490000000    -0.306839   
O95      O      0.417810000000     0.474070000000     0.478380000000    -0.309053   
O96      O      0.530910000000     0.492270000000     0.590220000000    -0.303028   
O97      O      0.415520000000     0.527880000000     0.514820000000    -0.307955   
O98      O      0.486110000000     0.410490000000     0.491230000000    -0.30806    
O99      O      0.531790000000     0.515070000000     0.407340000000    -0.30747    
O100     O      0.600850000000     0.487430000000     0.522030000000    -0.307033   
O101     O      0.488930000000     0.466160000000     0.413110000000    -0.305839   
O102     O      0.596960000000     0.532000000000     0.474950000000    -0.311603   
O103     O      0.526240000000     0.592240000000     0.464400000000    -0.310319   
O104     O      0.479160000000     0.596790000000     0.509030000000    -0.30684    
Zn1      Zn     0.970290000000     0.977130000000     0.040480000000     0.451156   
Zn2      Zn     0.046420000000     0.031720000000     0.043240000000     0.445882   
Zn3      Zn     0.036310000000     0.967080000000     0.975230000000     0.4474     
Zn4      Zn     0.982340000000     0.043530000000     0.976180000000     0.450737   
Zn5      Zn     0.972160000000     0.043740000000     0.478600000000     0.449168   
Zn6      Zn     0.041820000000     0.982390000000     0.471950000000     0.44987    
Zn7      Zn     0.043680000000     0.047010000000     0.539130000000     0.451557   
Zn8      Zn     0.981800000000     0.977160000000     0.544060000000     0.447416   
Zn9      Zn     0.038190000000     0.475490000000     0.051790000000     0.446789   
Zn10     Zn     0.975010000000     0.466530000000     0.983400000000     0.445318   
Zn11     Zn     0.965060000000     0.535020000000     0.048080000000     0.448019   
Zn12     Zn     0.032170000000     0.541500000000     0.985060000000     0.451053   
Zn13     Zn     0.037350000000     0.474730000000     0.552100000000     0.448639   
Zn14     Zn     0.976390000000     0.478310000000     0.482790000000     0.448019   
Zn15     Zn     0.977140000000     0.547800000000     0.546650000000     0.449917   
Zn16     Zn     0.046460000000     0.542130000000     0.486480000000     0.449559   
Zn17     Zn     0.481800000000     0.968400000000     0.963050000000     0.447157   
Zn18     Zn     0.475120000000     0.032800000000     0.031360000000     0.445286   
Zn19     Zn     0.549010000000     0.974660000000     0.027880000000     0.4505     
Zn20     Zn     0.540130000000     0.041630000000     0.964130000000     0.451769   
Zn21     Zn     0.536720000000     0.971100000000     0.532530000000     0.449554   
Zn22     Zn     0.473780000000     0.976250000000     0.462950000000     0.447553   
Zn23     Zn     0.476400000000     0.043060000000     0.527190000000     0.452735   
Zn24     Zn     0.547530000000     0.036120000000     0.467450000000     0.449518   
Zn25     Zn     0.468350000000     0.540320000000     0.970060000000     0.446957   
Zn26     Zn     0.464290000000     0.470650000000     0.032340000000     0.45095    
Zn27     Zn     0.530280000000     0.469370000000     0.965320000000     0.443027   
Zn28     Zn     0.534870000000     0.531740000000     0.036200000000     0.446996   
Zn29     Zn     0.472340000000     0.540190000000     0.526510000000     0.446319   
Zn30     Zn     0.543560000000     0.476550000000     0.534310000000     0.447353   
Zn31     Zn     0.475970000000     0.465040000000     0.471060000000     0.448801   
Zn32     Zn     0.539430000000     0.534990000000     0.462430000000     0.451846   


