data_structure

_audit_creation_method RASPA-1.0
_audit_creation_date 2023-5-25
_audit_author_name 'Poobodin Mano'

_cell_length_a    33.893
_cell_length_b    34.006
_cell_length_c    33.8553
_cell_angle_alpha 90
_cell_angle_beta  90
_cell_angle_gamma 90
_cell_volume      39020.4

_symmetry_cell_setting          triclinic
_symmetry_space_group_name_Hall 'P 1'
_symmetry_space_group_name_H-M  'P 1'
_symmetry_Int_Tables_number     1

_symmetry_equiv_pos_as_xyz 'x,y,z'

loop_
_atom_site_label
_atom_site_type_symbol
_atom_site_fract_x
_atom_site_fract_y
_atom_site_fract_z
_atom_site_charge
C1       C      0.992630000000     0.987980000000     0.113090000000     0.365927   
C2       C      0.107890000000     0.004810000000     0.015100000000     0.360852   
C3       C      0.003090000000     0.886730000000     0.998260000000     0.364855   
C4       C      0.007090000000     0.992900000000     0.894760000000     0.365996   
C5       C      0.991270000000     0.103960000000     0.004820000000     0.365353   
C6       C      0.890640000000     0.995200000000     0.001020000000     0.366315   
C7       C      0.020760000000     0.115350000000     0.489780000000     0.36312    
C8       C      0.018820000000     0.994950000000     0.393170000000     0.363563   
C9       C      0.127200000000     0.006110000000     0.501550000000     0.364888   
C10      C      0.016420000000     0.898720000000     0.513530000000     0.367398   
C11      C      0.906990000000     0.008650000000     0.496940000000     0.364726   
C12      C      0.013850000000     0.017730000000     0.610000000000     0.361971   
C13      C      0.017820000000     0.387380000000     0.012120000000     0.363426   
C14      C      0.019210000000     0.513840000000     0.107490000000     0.359827   
C15      C      0.124140000000     0.496430000000     0.992480000000     0.367885   
C16      C      0.007260000000     0.603320000000     0.988380000000     0.36274    
C17      C      0.906010000000     0.484160000000     0.000740000000     0.362629   
C18      C      0.013830000000     0.489690000000     0.890190000000     0.364794   
C19      C      0.012640000000     0.401700000000     0.492290000000     0.364206   
C20      C      0.013840000000     0.519160000000     0.395280000000     0.36093    
C21      C      0.895190000000     0.508880000000     0.490050000000     0.368627   
C22      C      0.007190000000     0.617330000000     0.515110000000     0.363415   
C23      C      0.112310000000     0.512170000000     0.521240000000     0.36419    
C24      C      0.983600000000     0.497490000000     0.609980000000     0.363217   
C25      C      0.392800000000     0.021300000000     0.009910000000     0.363786   
C26      C      0.504240000000     0.023170000000     0.120120000000     0.364518   
C27      C      0.497800000000     0.908030000000     0.021040000000     0.36241    
C28      C      0.612690000000     0.011840000000     0.009720000000     0.366421   
C29      C      0.507840000000     0.124690000000     0.005700000000     0.36224    
C30      C      0.503700000000     0.008690000000     0.901840000000     0.36239    
C31      C      0.406560000000     0.005730000000     0.510330000000     0.363765   
C32      C      0.511300000000     0.030780000000     0.403810000000     0.366353   
C33      C      0.516030000000     0.116230000000     0.531740000000     0.362528   
C34      C      0.626650000000     0.012670000000     0.508550000000     0.365178   
C35      C      0.522400000000     0.902420000000     0.492630000000     0.365845   
C36      C      0.513850000000     0.988800000000     0.618540000000     0.364185   
C37      C      0.404940000000     0.508740000000     0.032980000000     0.363655   
C38      C      0.520060000000     0.402920000000     0.014830000000     0.364181   
C39      C      0.497020000000     0.515160000000     0.912500000000     0.364511   
C40      C      0.621800000000     0.516030000000     0.009720000000     0.361581   
C41      C      0.522230000000     0.508330000000     0.129060000000     0.364527   
C42      C      0.514380000000     0.622110000000     0.021490000000     0.364486   
C43      C      0.394010000000     0.508040000000     0.532090000000     0.361506   
C44      C      0.500240000000     0.400160000000     0.528580000000     0.363563   
C45      C      0.497150000000     0.505030000000     0.414330000000     0.362881   
C46      C      0.611220000000     0.510440000000     0.515800000000     0.363113   
C47      C      0.515010000000     0.514970000000     0.631260000000     0.365192   
C48      C      0.497460000000     0.619770000000     0.517730000000     0.363935   
C49      C      0.532970000000     0.552140000000     0.691510000000     0.00988944 
C50      C      0.498220000000     0.480020000000     0.848680000000     0.0101696  
C51      C      0.473720000000     0.550570000000     0.853090000000    -0.0411935  
C52      C      0.523960000000     0.490510000000     0.813430000000    -0.0968012  
C53      C      0.505050000000     0.560920000000     0.726230000000    -0.103724   
C54      C      0.498230000000     0.561270000000     0.816010000000    -0.0738082  
C55      C      0.500810000000     0.524410000000     0.751550000000     0.0301774  
C56      C      0.506400000000     0.525000000000     0.791300000000     0.0241245  
C57      C      0.516270000000     0.479920000000     0.695220000000     0.0109211  
C58      C      0.488400000000     0.487570000000     0.729650000000    -0.102268   
C59      C      0.430680000000     0.543920000000     0.843410000000     0.304484   
C60      C      0.540570000000     0.541380000000     0.191380000000     0.010742   
C61      C      0.504810000000     0.468280000000     0.351710000000     0.00809051 
C62      C      0.479010000000     0.538590000000     0.352330000000    -0.0419427  
C63      C      0.529670000000     0.477370000000     0.315220000000    -0.0960407  
C64      C      0.514730000000     0.548650000000     0.227750000000    -0.103483   
C65      C      0.504240000000     0.548150000000     0.315650000000    -0.0747715  
C66      C      0.511210000000     0.511150000000     0.251660000000     0.0279532  
C67      C      0.512490000000     0.511340000000     0.291880000000     0.0242543  
C68      C      0.521860000000     0.469640000000     0.191000000000     0.0100878  
C69      C      0.497650000000     0.475280000000     0.228690000000    -0.102159   
C70      C      0.436170000000     0.531400000000     0.342070000000     0.306542   
C71      C      0.524590000000     0.684110000000     0.538770000000     0.0107463  
C72      C      0.503090000000     0.842750000000     0.454720000000     0.00725359 
C73      C      0.553020000000     0.838430000000     0.510050000000    -0.0409906  
C74      C      0.482710000000     0.804930000000     0.469220000000    -0.0975366  
C75      C      0.542670000000     0.714630000000     0.511280000000    -0.104368   
C76      C      0.530870000000     0.802930000000     0.527110000000    -0.0720531  
C77      C      0.510180000000     0.739570000000     0.493210000000     0.0273731  
C78      C      0.509770000000     0.779940000000     0.494890000000     0.0192184  
C79      C      0.463790000000     0.681230000000     0.496180000000     0.00837446 
C80      C      0.479520000000     0.715510000000     0.470840000000    -0.103108   
C81      C      0.588120000000     0.826470000000     0.485080000000     0.303101   
C82      C      0.542510000000     0.182210000000     0.515620000000     0.0100001  
C83      C      0.467480000000     0.339390000000     0.552140000000     0.00594887 
C84      C      0.526920000000     0.336560000000     0.505520000000    -0.0437686  
C85      C      0.481490000000     0.301330000000     0.572350000000    -0.0947487  
C86      C      0.518400000000     0.217250000000     0.501410000000    -0.102933   
C87      C      0.541350000000     0.300170000000     0.527970000000    -0.0738998  
C88      C      0.500600000000     0.238100000000     0.536760000000     0.0301169  
C89      C      0.506960000000     0.277140000000     0.544710000000     0.0220135  
C90      C      0.495990000000     0.173370000000     0.573090000000     0.00841663 
C91      C      0.474370000000     0.211660000000     0.561770000000    -0.103674   
C92      C      0.508280000000     0.325730000000     0.466450000000     0.307791   
C93      C      0.488340000000     0.684590000000     0.994330000000     0.00980179 
C94      C      0.514770000000     0.849260000000     0.060680000000     0.00701945 
C95      C      0.470030000000     0.843600000000     0.000760000000    -0.0436536  
C96      C      0.535940000000     0.811100000000     0.049390000000    -0.0958329  
C97      C      0.472290000000     0.720090000000     0.016650000000    -0.102888   
C98      C      0.490820000000     0.804890000000     0.989620000000    -0.0723726  
C99      C      0.506150000000     0.744950000000     0.031940000000     0.0287065  
C100     C      0.509150000000     0.784650000000     0.025270000000     0.0231363  
C101     C      0.548830000000     0.684420000000     0.037770000000     0.00907557 
C102     C      0.534610000000     0.722250000000     0.058210000000    -0.103606   
C103     C      0.430710000000     0.836580000000     0.020590000000     0.306371   
C104     C      0.543920000000     0.343420000000     0.980200000000     0.00870292 
C105     C      0.488530000000     0.189370000000     0.032750000000     0.00765277 
C106     C      0.540530000000     0.183310000000     0.977500000000    -0.0455558  
C107     C      0.475940000000     0.228560000000     0.014710000000    -0.0957901  
C108     C      0.561950000000     0.303950000000     0.992790000000    -0.105338   
C109     C      0.527920000000     0.224360000000     0.962800000000    -0.0736197  
C110     C      0.530640000000     0.279800000000     0.013490000000     0.0367589  
C111     C      0.511670000000     0.248250000000     0.996800000000     0.0192679  
C112     C      0.496270000000     0.338520000000     0.038690000000     0.00945849 
C113     C      0.516560000000     0.300180000000     0.050530000000    -0.105393   
C114     C      0.580110000000     0.185160000000     0.997940000000     0.309715   
C115     C      0.545740000000     0.962080000000     0.678500000000     0.0107692  
C116     C      0.469840000000     0.994940000000     0.838590000000     0.00924448 
C117     C      0.541190000000     0.018980000000     0.840240000000    -0.0411551  
C118     C      0.480200000000     0.966820000000     0.805000000000    -0.0964065  
C119     C      0.552720000000     0.983530000000     0.717660000000    -0.103307   
C120     C      0.551430000000     0.990580000000     0.806180000000    -0.0746963  
C121     C      0.514880000000     0.985230000000     0.741500000000     0.0286892  
C122     C      0.515120000000     0.981960000000     0.781640000000     0.0246449  
C123     C      0.473980000000     0.980810000000     0.679330000000     0.00995562 
C124     C      0.478960000000     0.000670000000     0.719550000000    -0.101321   
C125     C      0.536220000000     0.060810000000     0.825880000000     0.305495   
C126     C      0.540040000000     0.063140000000     0.345280000000     0.0114453  
C127     C      0.469080000000     0.032420000000     0.183320000000     0.00947242 
C128     C      0.542350000000     0.014530000000     0.181420000000    -0.0407139  
C129     C      0.476730000000     0.059400000000     0.218530000000    -0.0964123  
C130     C      0.549820000000     0.044600000000     0.305350000000    -0.103792   
C131     C      0.549830000000     0.042240000000     0.216670000000    -0.0753104  
C132     C      0.512600000000     0.040250000000     0.281020000000     0.0293704  
C133     C      0.512790000000     0.046200000000     0.241260000000     0.0248203  
C134     C      0.471110000000     0.035600000000     0.342930000000     0.0099956  
C135     C      0.478510000000     0.019460000000     0.301380000000    -0.10159    
C136     C      0.541080000000     0.971850000000     0.194000000000     0.30706    
C137     C      0.673360000000     0.474000000000     0.503810000000     0.00970631 
C138     C      0.834840000000     0.544650000000     0.470610000000     0.00912875 
C139     C      0.832310000000     0.471830000000     0.487130000000    -0.0432268  
C140     C      0.796930000000     0.551960000000     0.494020000000    -0.0972686  
C141     C      0.706960000000     0.483120000000     0.475210000000    -0.102911   
C142     C      0.792360000000     0.478170000000     0.507860000000    -0.0730001  
C143     C      0.731530000000     0.517150000000     0.490400000000     0.0270771  
C144     C      0.771570000000     0.515340000000     0.494240000000     0.0240223  
C145     C      0.674670000000     0.544250000000     0.528200000000     0.00951103 
C146     C      0.708080000000     0.554070000000     0.499240000000    -0.103554   
C147     C      0.827250000000     0.454630000000     0.446290000000     0.306285   
C148     C      0.168530000000     0.524670000000     0.566190000000     0.00950497 
C149     C      0.329240000000     0.513880000000     0.499190000000     0.00801878 
C150     C      0.334600000000     0.491350000000     0.571110000000    -0.0424507  
C151     C      0.292600000000     0.537510000000     0.509730000000    -0.0957219  
C152     C      0.205930000000     0.500680000000     0.575120000000    -0.104808   
C153     C      0.295810000000     0.513480000000     0.580510000000    -0.0741725  
C154     C      0.233870000000     0.503350000000     0.540350000000     0.0332648  
C155     C      0.271150000000     0.518020000000     0.543540000000     0.0222067  
C156     C      0.179340000000     0.514940000000     0.492720000000     0.00971744 
C157     C      0.216000000000     0.490540000000     0.501510000000    -0.103019   
C158     C      0.327830000000     0.447530000000     0.567620000000     0.307161   
C159     C      0.686570000000     0.531330000000     0.039830000000     0.00968471 
C160     C      0.842760000000     0.483200000000     0.963930000000     0.00949554 
C161     C      0.845370000000     0.464170000000     0.036240000000    -0.0408406  
C162     C      0.806180000000     0.508420000000     0.971210000000    -0.0965211  
C163     C      0.720970000000     0.502940000000     0.046970000000    -0.10242    
C164     C      0.808120000000     0.489030000000     0.044360000000    -0.0738748  
C165     C      0.743200000000     0.495920000000     0.008720000000     0.0261627  
C166     C      0.783470000000     0.494650000000     0.007330000000     0.0259111  
C167     C      0.682240000000     0.510410000000     0.968640000000     0.00937569 
C168     C      0.717630000000     0.483020000000     0.974190000000    -0.101096   
C169     C      0.836010000000     0.420880000000     0.032060000000     0.304099   
C170     C      0.340310000000     0.542560000000     0.029370000000     0.0135912  
C171     C      0.187430000000     0.462120000000     0.979730000000     0.0073457  
C172     C      0.185800000000     0.535380000000     0.994800000000    -0.0407879  
C173     C      0.222830000000     0.456680000000     0.007660000000    -0.0974084  
C174     C      0.308600000000     0.532520000000     0.999110000000    -0.107736   
C175     C      0.220730000000     0.530110000000     0.023080000000    -0.0747604  
C176     C      0.285890000000     0.496220000000     0.011980000000     0.0272276  
C177     C      0.245640000000     0.494820000000     0.011830000000     0.016873   
C178     C      0.344190000000     0.471830000000     0.050630000000     0.00972231 
C179     C      0.311310000000     0.460600000000     0.021280000000    -0.1037     
C180     C      0.199060000000     0.551140000000     0.955090000000     0.30295    
C181     C      0.028370000000     0.455310000000     0.827150000000     0.00842547 
C182     C      0.977540000000     0.529330000000     0.675260000000     0.0107705  
C183     C      0.963820000000     0.456400000000     0.667150000000    -0.0411339  
C184     C      0.004330000000     0.521210000000     0.710360000000    -0.0978861  
C185     C      0.998760000000     0.444750000000     0.794230000000    -0.102132   
C186     C      0.988860000000     0.447670000000     0.704510000000    -0.0737651  
C187     C      0.988320000000     0.481410000000     0.770960000000     0.0284383  
C188     C      0.991940000000     0.483620000000     0.730940000000     0.0254572  
C189     C      0.003910000000     0.525470000000     0.827380000000     0.00797715 
C190     C      0.973620000000     0.515450000000     0.795740000000    -0.100334   
C191     C      0.920100000000     0.456450000000     0.675990000000     0.303937   
C192     C      0.981560000000     0.520410000000     0.169590000000     0.0100302  
C193     C      0.050520000000     0.504410000000     0.334170000000     0.00840859 
C194     C      0.979040000000     0.528450000000     0.331920000000    -0.0447171  
C195     C      0.059580000000     0.527190000000     0.296150000000    -0.0971429  
C196     C      0.988080000000     0.503300000000     0.210830000000    -0.102396   
C197     C      0.987710000000     0.547690000000     0.291620000000    -0.0726952  
C198     C      0.023140000000     0.522160000000     0.231270000000     0.0260512  
C199     C      0.022900000000     0.529470000000     0.270960000000     0.022144   
C200     C      0.052790000000     0.541520000000     0.166180000000     0.0100417  
C201     C      0.060730000000     0.523310000000     0.206970000000    -0.103185   
C202     C      0.955540000000     0.491030000000     0.326920000000     0.306343   
C203     C      0.041940000000     0.673550000000     0.544340000000     0.0114075  
C204     C      0.978830000000     0.837220000000     0.522880000000     0.00782211 
C205     C      0.052710000000     0.836150000000     0.507530000000    -0.0391981  
C206     C      0.984130000000     0.801420000000     0.549700000000    -0.0976711  
C207     C      0.054730000000     0.713590000000     0.528480000000    -0.104921   
C208     C      0.057860000000     0.802290000000     0.537330000000    -0.0764684  
C209     C      0.019190000000     0.740160000000     0.525530000000     0.0307953  
C210     C      0.020350000000     0.778220000000     0.538050000000     0.0168803  
C211     C      0.974310000000     0.681940000000     0.513480000000     0.00979939 
C212     C      0.985350000000     0.723910000000     0.501170000000    -0.103519   
C213     C      0.051720000000     0.821310000000     0.465270000000     0.305335   
C214     C      0.979900000000     0.337710000000     0.499160000000     0.0109127  
C215     C      0.057870000000     0.178020000000     0.492610000000     0.00841611 
C216     C      0.991240000000     0.173520000000     0.458350000000    -0.0409529  
C217     C      0.048160000000     0.219850000000     0.506490000000    -0.0955847  
C218     C      0.977720000000     0.301870000000     0.472210000000    -0.103411   
C219     C      0.980230000000     0.214440000000     0.473990000000    -0.0747309  
C220     C      0.015860000000     0.279070000000     0.475570000000     0.027171   
C221     C      0.016480000000     0.239350000000     0.481540000000     0.025158   
C222     C      0.053900000000     0.341770000000     0.489000000000     0.00908434 
C223     C      0.052520000000     0.302880000000     0.465980000000    -0.1019     
C224     C      0.004120000000     0.174450000000     0.415560000000     0.30586    
C225     C      0.687180000000     0.038360000000     0.476780000000     0.00852094 
C226     C      0.843980000000     0.984610000000     0.524320000000     0.00790597 
C227     C      0.845630000000     0.038230000000     0.470490000000    -0.0454822  
C228     C      0.805470000000     0.969660000000     0.506400000000    -0.0966095  
C229     C      0.726540000000     0.054360000000     0.492280000000    -0.104601   
C230     C      0.804880000000     0.023410000000     0.456550000000    -0.073752   
C231     C      0.750450000000     0.020580000000     0.508850000000     0.0360016  
C232     C      0.782830000000     0.004480000000     0.490520000000     0.0200741  
C233     C      0.690630000000     0.983910000000     0.528680000000     0.0088529  
C234     C      0.729350000000     0.001800000000     0.543470000000    -0.104942   
C235     C      0.841720000000     0.076980000000     0.491920000000     0.308726   
C236     C      0.345610000000     0.979920000000     0.479670000000     0.0088546  
C237     C      0.189630000000     0.031090000000     0.529660000000     0.00750568 
C238     C      0.189090000000     0.976780000000     0.476450000000    -0.0450661  
C239     C      0.228440000000     0.046000000000     0.512230000000    -0.0959329  
C240     C      0.307670000000     0.962070000000     0.496450000000    -0.105064   
C241     C      0.229150000000     0.992580000000     0.461970000000    -0.07391    
C242     C      0.283340000000     0.994880000000     0.514220000000     0.0361742  
C243     C      0.251140000000     0.011360000000     0.496000000000     0.0190027  
C244     C      0.342730000000     0.032390000000     0.533750000000     0.00870583 
C245     C      0.304650000000     0.013330000000     0.548840000000    -0.1051     
C246     C      0.194230000000     0.938540000000     0.498550000000     0.309108   
C247     C      0.967280000000     0.824310000000     0.007870000000     0.0104645  
C248     C      0.041320000000     0.667440000000     0.985040000000     0.00915662 
C249     C      0.968930000000     0.660820000000     0.965970000000    -0.0403462  
C250     C      0.033040000000     0.707560000000     0.003460000000    -0.0968266  
C251     C      0.959360000000     0.790400000000     0.979230000000    -0.104196   
C252     C      0.960550000000     0.701560000000     0.984100000000    -0.0749616  
C253     C      0.996430000000     0.765920000000     0.975660000000     0.0296113  
C254     C      0.997350000000     0.726840000000     0.984780000000     0.0262523  
C255     C      0.039660000000     0.824270000000     0.988970000000     0.009251   
C256     C      0.032230000000     0.788920000000     0.962000000000    -0.102667   
C257     C      0.971910000000     0.662710000000     0.921410000000     0.305346   
C258     C      0.006650000000     0.325830000000     0.050520000000     0.00993196 
C259     C      0.973300000000     0.166020000000     0.971520000000     0.00884296 
C260     C      0.987600000000     0.164540000000     0.045100000000    -0.0430805  
C261     C      0.996470000000     0.204390000000     0.967210000000    -0.0961533  
C262     C      0.978890000000     0.291770000000     0.039960000000    -0.10337    
C263     C      0.008130000000     0.204790000000     0.041910000000    -0.0729506  
C264     C      0.994720000000     0.267790000000     0.005470000000     0.0271811  
C265     C      0.995850000000     0.227640000000     0.005410000000     0.0235775  
C266     C      0.035590000000     0.323470000000     0.982110000000     0.0107288  
C267     C      0.006130000000     0.291800000000     0.969570000000    -0.104462   
C268     C      0.946250000000     0.168330000000     0.061400000000     0.305024   
C269     C      0.829140000000     0.025920000000     0.976590000000     0.00910645 
C270     C      0.674170000000     0.980710000000     0.033340000000     0.00731814 
C271     C      0.675090000000     0.034830000000     0.979850000000    -0.0448177  
C272     C      0.713900000000     0.996160000000     0.048060000000    -0.0963171  
C273     C      0.790320000000     0.009150000000     0.960780000000    -0.105256   
C274     C      0.715830000000     0.047270000000     0.995510000000    -0.0741858  
C275     C      0.767260000000     0.992650000000     0.995230000000     0.0372002  
C276     C      0.736610000000     0.012070000000     0.013160000000     0.0199318  
C277     C      0.827680000000     0.973610000000     0.030960000000     0.0084861  
C278     C      0.788860000000     0.958350000000     0.013640000000    -0.105351   
C279     C      0.678840000000     0.013570000000     0.940860000000     0.308907   
C280     C      0.328550000000     0.995820000000     0.985890000000     0.00962498 
C281     C      0.165870000000     0.031630000000     0.050560000000     0.00708956 
C282     C      0.173860000000     0.982430000000     0.993810000000    -0.0439913  
C283     C      0.205080000000     0.051230000000     0.038750000000    -0.0952454  
C284     C      0.293720000000     0.981450000000     0.010590000000    -0.103026   
C285     C      0.211330000000     0.004250000000     0.981270000000    -0.0738172  
C286     C      0.270350000000     0.016440000000     0.025600000000     0.0299417  
C287     C      0.231460000000     0.022830000000     0.016500000000     0.0219753  
C288     C      0.331660000000     0.057500000000     0.027480000000     0.00886648 
C289     C      0.294890000000     0.044310000000     0.050560000000    -0.103988   
C290     C      0.183400000000     0.944510000000     0.015050000000     0.307562   
C291     C      0.975490000000     0.013760000000     0.672110000000     0.0116513  
C292     C      0.045380000000     0.979200000000     0.834070000000     0.00736832 
C293     C      0.971950000000     0.994950000000     0.830670000000    -0.0409516  
C294     C      0.053160000000     0.005270000000     0.797840000000    -0.09751    
C295     C      0.983860000000     0.988250000000     0.708240000000    -0.105363   
C296     C      0.979610000000     0.020330000000     0.793960000000    -0.0754281  
C297     C      0.017880000000     0.004870000000     0.732120000000     0.02543    
C298     C      0.016560000000     0.007510000000     0.772310000000     0.0166191  
C299     C      0.045540000000     0.038610000000     0.672560000000     0.00970417 
C300     C      0.055150000000     0.012930000000     0.708690000000    -0.103275   
C301     C      0.955520000000     0.955080000000     0.819300000000     0.302322   
C302     C      0.033360000000     0.954400000000     0.334140000000     0.00864371 
C303     C      0.995080000000     0.020880000000     0.178010000000     0.0100661  
C304     C      0.979470000000     0.947690000000     0.172570000000    -0.0409189  
C305     C      0.022340000000     0.012700000000     0.212710000000    -0.0970661  
C306     C      0.005400000000     0.942210000000     0.300490000000    -0.104581   
C307     C      0.005150000000     0.939820000000     0.209600000000    -0.0751371  
C308     C      0.998610000000     0.977130000000     0.273600000000     0.0332326  
C309     C      0.008440000000     0.976580000000     0.234640000000     0.023564   
C310     C      0.011450000000     0.025250000000     0.327230000000     0.00873242 
C311     C      0.983280000000     0.013490000000     0.294240000000    -0.102203   
C312     C      0.935930000000     0.947720000000     0.182330000000     0.30592    
H1       H      0.517720000000     0.586090000000     0.742860000000     0.0477603  
H2       H      0.469840000000     0.467980000000     0.837510000000     0.043667   
H3       H      0.545600000000     0.471690000000     0.707430000000     0.0310874  
H4       H      0.486130000000     0.461030000000     0.748500000000     0.0521067  
H5       H      0.529070000000     0.464080000000     0.795000000000     0.0470313  
H6       H      0.482000000000     0.584270000000     0.799250000000     0.0481189  
H7       H      0.533250000000     0.578000000000     0.671410000000     0.0414124  
H8       H      0.512710000000     0.456180000000     0.865840000000     0.042092   
H9       H      0.458270000000     0.492550000000     0.717660000000     0.0653703  
H10      H      0.526920000000     0.574100000000     0.825370000000     0.0472311  
H11      H      0.505320000000     0.454420000000     0.677840000000     0.0430105  
H12      H      0.475590000000     0.569700000000     0.714830000000     0.0593886  
H13      H      0.553510000000     0.499470000000     0.824500000000     0.0565769  
H14      H      0.475390000000     0.576650000000     0.872960000000     0.0631201  
H15      H      0.563350000000     0.548100000000     0.703270000000     0.0335669  
H16      H      0.392640000000     0.520860000000     0.803200000000     0.181587   
H17      H      0.528940000000     0.572670000000     0.244860000000     0.0479568  
H18      H      0.476880000000     0.454230000000     0.341850000000     0.0471043  
H19      H      0.551720000000     0.459100000000     0.199590000000     0.0323743  
H20      H      0.498120000000     0.447630000000     0.245930000000     0.0519444  
H21      H      0.533680000000     0.450110000000     0.297810000000     0.0483466  
H22      H      0.488340000000     0.570840000000     0.298180000000     0.0473775  
H23      H      0.540700000000     0.568590000000     0.173140000000     0.042061   
H24      H      0.520650000000     0.446260000000     0.370080000000     0.0473031  
H25      H      0.466340000000     0.480070000000     0.220180000000     0.0656015  
H26      H      0.532850000000     0.561030000000     0.325210000000     0.0479005  
H27      H      0.508050000000     0.446170000000     0.172800000000     0.0426855  
H28      H      0.484880000000     0.558530000000     0.218450000000     0.0600692  
H29      H      0.559670000000     0.486130000000     0.325150000000     0.0563858  
H30      H      0.479980000000     0.565490000000     0.371070000000     0.0649167  
H31      H      0.571370000000     0.535700000000     0.201250000000     0.0341683  
H32      H      0.379990000000     0.541890000000     0.360110000000     0.18167    
H33      H      0.566130000000     0.730730000000     0.526990000000     0.0607549  
H34      H      0.524080000000     0.834640000000     0.430810000000     0.0442224  
H35      H      0.443570000000     0.693630000000     0.518880000000     0.0331025  
H36      H      0.453310000000     0.732920000000     0.462120000000     0.0476223  
H37      H      0.473260000000     0.789200000000     0.442140000000     0.0472514  
H38      H      0.550850000000     0.785930000000     0.546340000000     0.0509838  
H39      H      0.548800000000     0.666420000000     0.551970000000     0.0431125  
H40      H      0.480390000000     0.862120000000     0.441220000000     0.0447436  
H41      H      0.493270000000     0.703610000000     0.443540000000     0.056654   
H42      H      0.507830000000     0.814200000000     0.547590000000     0.0500041  
H43      H      0.445940000000     0.661520000000     0.477040000000     0.0444962  
H44      H      0.558130000000     0.699010000000     0.486920000000     0.0625989  
H45      H      0.455980000000     0.812750000000     0.486540000000     0.0532913  
H46      H      0.565080000000     0.854920000000     0.535700000000     0.0629626  
H47      H      0.509170000000     0.699570000000     0.563280000000     0.0322951  
H48      H      0.627340000000     0.782680000000     0.473800000000     0.18122    
H49      H      0.536230000000     0.235780000000     0.481450000000     0.0560638  
H50      H      0.443410000000     0.331840000000     0.531170000000     0.0526875  
H51      H      0.517990000000     0.180500000000     0.596390000000     0.0335978  
H52      H      0.465150000000     0.225340000000     0.589950000000     0.0481653  
H53      H      0.454440000000     0.285890000000     0.582070000000     0.0488626  
H54      H      0.562440000000     0.283160000000     0.509850000000     0.0448197  
H55      H      0.555640000000     0.167480000000     0.489440000000     0.0442671  
H56      H      0.454080000000     0.358550000000     0.575120000000     0.0502185  
H57      H      0.447340000000     0.204380000000     0.544690000000     0.0586408  
H58      H      0.559390000000     0.310480000000     0.553400000000     0.0496779  
H59      H      0.474280000000     0.152740000000     0.586360000000     0.0431973  
H60      H      0.493840000000     0.206160000000     0.482670000000     0.065206   
H61      H      0.498930000000     0.308840000000     0.599120000000     0.0529986  
H62      H      0.553910000000     0.354020000000     0.498840000000     0.0679483  
H63      H      0.567190000000     0.193070000000     0.534360000000     0.0335641  
H64      H      0.514150000000     0.331160000000     0.406990000000     0.182513   
H65      H      0.450510000000     0.735650000000     0.998150000000     0.0572527  
H66      H      0.491800000000     0.842270000000     0.083060000000     0.0499066  
H67      H      0.570010000000     0.692740000000     0.014090000000     0.0333186  
H68      H      0.561710000000     0.738940000000     0.065450000000     0.0481975  
H69      H      0.545100000000     0.797660000000     0.077750000000     0.0495009  
H70      H      0.470710000000     0.786620000000     0.971700000000     0.0453435  
H71      H      0.462970000000     0.666520000000     0.984200000000     0.0459076  
H72      H      0.536520000000     0.868830000000     0.075400000000     0.050676   
H73      H      0.519480000000     0.714650000000     0.086320000000     0.058141   
H74      H      0.515440000000     0.812220000000     0.969180000000     0.0493132  
H75      H      0.565340000000     0.666520000000     0.059720000000     0.0430524  
H76      H      0.455220000000     0.709310000000     0.042540000000     0.0652578  
H77      H      0.562850000000     0.817980000000     0.031950000000     0.0553324  
H78      H      0.463850000000     0.858880000000     0.972340000000     0.0668309  
H79      H      0.504270000000     0.695120000000     0.967610000000     0.0334876  
H80      H      0.374150000000     0.856110000000     0.023510000000     0.183377   
H81      H      0.575820000000     0.289960000000     0.966910000000     0.0531598  
H82      H      0.507480000000     0.195150000000     0.058910000000     0.0480973  
H83      H      0.468560000000     0.331470000000     0.022590000000     0.0335817  
H84      H      0.497400000000     0.282210000000     0.069830000000     0.0506022  
H85      H      0.459580000000     0.246550000000     0.036410000000     0.0456125  
H86      H      0.552370000000     0.237990000000     0.946210000000     0.0477099  
H87      H      0.568060000000     0.362420000000     0.968780000000     0.0435151  
H88      H      0.461570000000     0.174150000000     0.043560000000     0.0429447  
H89      H      0.542530000000     0.307450000000     0.069250000000     0.0607837  
H90      H      0.504020000000     0.220540000000     0.940600000000     0.0499049  
H91      H      0.487910000000     0.354360000000     0.066180000000     0.0428576  
H92      H      0.586520000000     0.309740000000     0.013780000000     0.0618058  
H93      H      0.454130000000     0.222530000000     0.990900000000     0.0536133  
H94      H      0.544420000000     0.165040000000     0.950480000000     0.0746282  
H95      H      0.523210000000     0.338080000000     0.955290000000     0.0345489  
H96      H      0.638130000000     0.171400000000     0.992080000000     0.183885   
H97      H      0.576170000000     0.967030000000     0.733540000000     0.0482999  
H98      H      0.456600000000     0.021910000000     0.825610000000     0.0445814  
H99      H      0.463610000000     0.950190000000     0.684440000000     0.0313354  
H100     H      0.450980000000     0.997820000000     0.736150000000     0.0502872  
H101     H      0.453670000000     0.960810000000     0.786890000000     0.0468017  
H102     H      0.575810000000     0.003890000000     0.788810000000     0.0479726  
H103     H      0.573290000000     0.963650000000     0.660730000000     0.0421939  
H104     H      0.446760000000     0.981110000000     0.857330000000     0.0431833  
H105     H      0.483380000000     0.032690000000     0.714640000000     0.0650498  
H106     H      0.562590000000     0.962450000000     0.818660000000     0.049456   
H107     H      0.450490000000     0.996270000000     0.662470000000     0.0417887  
H108     H      0.563370000000     0.013910000000     0.711890000000     0.0606286  
H109     H      0.488680000000     0.938060000000     0.818110000000     0.0555824  
H110     H      0.567230000000     0.018420000000     0.860360000000     0.0688039  
H111     H      0.539540000000     0.930570000000     0.684790000000     0.033406   
H112     H      0.510090000000     0.095340000000     0.784460000000     0.180647   
H113     H      0.571550000000     0.064300000000     0.290720000000     0.0486631  
H114     H      0.457710000000     0.003890000000     0.194600000000     0.0456169  
H115     H      0.456560000000     0.064760000000     0.339970000000     0.0318459  
H116     H      0.450510000000     0.020500000000     0.284600000000     0.0511458  
H117     H      0.449740000000     0.061880000000     0.236820000000     0.0468412  
H118     H      0.575370000000     0.030580000000     0.233570000000     0.047448   
H119     H      0.567520000000     0.064110000000     0.363210000000     0.0427687  
H120     H      0.445280000000     0.045450000000     0.164900000000     0.0426186  
H121     H      0.486420000000     0.987840000000     0.303980000000     0.0661309  
H122     H      0.558230000000     0.071830000000     0.205480000000     0.0494489  
H123     H      0.450120000000     0.015900000000     0.358590000000     0.0422306  
H124     H      0.563590000000     0.015250000000     0.309760000000     0.0614906  
H125     H      0.482560000000     0.089510000000     0.207150000000     0.055397   
H126     H      0.568260000000     0.018260000000     0.161470000000     0.0643669  
H127     H      0.530000000000     0.093920000000     0.340460000000     0.0342293  
H128     H      0.516450000000     0.933140000000     0.232510000000     0.181757   
H129     H      0.723980000000     0.456080000000     0.468870000000     0.0591763  
H130     H      0.827260000000     0.541100000000     0.438850000000     0.0503235  
H131     H      0.687830000000     0.536990000000     0.557420000000     0.0347472  
H132     H      0.726040000000     0.577520000000     0.513220000000     0.0475591  
H133     H      0.781820000000     0.577070000000     0.479470000000     0.0481214  
H134     H      0.774380000000     0.451090000000     0.505580000000     0.0477304  
H135     H      0.654060000000     0.451150000000     0.490490000000     0.0448184  
H136     H      0.853650000000     0.571310000000     0.473240000000     0.0440684  
H137     H      0.695510000000     0.565870000000     0.471330000000     0.0568967  
H138     H      0.798180000000     0.481760000000     0.539990000000     0.0532597  
H139     H      0.656140000000     0.570960000000     0.532010000000     0.0423144  
H140     H      0.693880000000     0.492090000000     0.446470000000     0.0637671  
H141     H      0.804250000000     0.560380000000     0.524890000000     0.054676   
H142     H      0.848330000000     0.449460000000     0.504960000000     0.0707005  
H143     H      0.686280000000     0.461280000000     0.531180000000     0.033263   
H144     H      0.851090000000     0.416180000000     0.407060000000     0.183352   
H145     H      0.218600000000     0.512580000000     0.602840000000     0.0488941  
H146     H      0.319880000000     0.485320000000     0.486230000000     0.0473962  
H147     H      0.188670000000     0.545710000000     0.486610000000     0.0318117  
H148     H      0.236740000000     0.491480000000     0.476230000000     0.0523706  
H149     H      0.274050000000     0.542440000000     0.483220000000     0.046971   
H150     H      0.280460000000     0.497460000000     0.604570000000     0.0468677  
H151     H      0.146840000000     0.519260000000     0.590240000000     0.0418629  
H152     H      0.345590000000     0.529970000000     0.475770000000     0.0470973  
H153     H      0.207030000000     0.459210000000     0.504330000000     0.0625658  
H154     H      0.303020000000     0.543280000000     0.591930000000     0.0476719  
H155     H      0.165340000000     0.503440000000     0.465380000000     0.0431153  
H156     H      0.197930000000     0.469390000000     0.580210000000     0.059168   
H157     H      0.302050000000     0.567270000000     0.519510000000     0.055385   
H158     H      0.354220000000     0.496330000000     0.597060000000     0.0647355  
H159     H      0.176200000000     0.556480000000     0.566760000000     0.0341365  
H160     H      0.294780000000     0.405450000000     0.540770000000     0.181051   
H161     H      0.739880000000     0.516570000000     0.070000000000     0.0478669  
H162     H      0.832940000000     0.453780000000     0.953520000000     0.0447315  
H163     H      0.693280000000     0.538920000000     0.956910000000     0.0319574  
H164     H      0.733570000000     0.480350000000     0.945830000000     0.0501841  
H165     H      0.788550000000     0.509360000000     0.943760000000     0.0480232  
H166     H      0.791190000000     0.474190000000     0.068230000000     0.0493489  
H167     H      0.669540000000     0.534060000000     0.067760000000     0.0429285  
H168     H      0.860220000000     0.496510000000     0.939560000000     0.0447227  
H169     H      0.706340000000     0.453060000000     0.980930000000     0.0623524  
H170     H      0.817110000000     0.518470000000     0.055460000000     0.0479109  
H171     H      0.662230000000     0.497690000000     0.945980000000     0.0423381  
H172     H      0.709630000000     0.474470000000     0.058420000000     0.059579   
H173     H      0.815900000000     0.539160000000     0.976740000000     0.0569556  
H174     H      0.864320000000     0.467530000000     0.062910000000     0.0645712  
H175     H      0.698770000000     0.560850000000     0.032590000000     0.0336805  
H176     H      0.796110000000     0.381410000000     0.011160000000     0.182494   
H177     H      0.290190000000     0.558730000000     0.993450000000     0.0647069  
H178     H      0.198700000000     0.465100000000     0.949040000000     0.0487967  
H179     H      0.330490000000     0.477630000000     0.079910000000     0.033894   
H180     H      0.294100000000     0.436450000000     0.035070000000     0.0471942  
H181     H      0.241340000000     0.432850000000     0.995000000000     0.0468901  
H182     H      0.237230000000     0.558000000000     0.026430000000     0.0539126  
H183     H      0.357760000000     0.568090000000     0.018640000000     0.0456178  
H184     H      0.169080000000     0.435030000000     0.980860000000     0.0430002  
H185     H      0.324640000000     0.449380000000     0.993480000000     0.0575967  
H186     H      0.208580000000     0.524240000000     0.053030000000     0.0516037  
H187     H      0.364500000000     0.446370000000     0.053950000000     0.0422185  
H188     H      0.323260000000     0.525750000000     0.970530000000     0.0691867  
H189     H      0.212280000000     0.447160000000     0.037240000000     0.0527594  
H190     H      0.166550000000     0.558480000000     0.007780000000     0.0642951  
H191     H      0.325480000000     0.551720000000     0.057210000000     0.0324041  
H192     H      0.233900000000     0.591890000000     0.928450000000     0.184959   
H193     H      0.012600000000     0.421710000000     0.775580000000     0.0475333  
H194     H      0.947530000000     0.536250000000     0.686560000000     0.0440528  
H195     H      0.030770000000     0.537150000000     0.812580000000     0.0355531  
H196     H      0.965730000000     0.542030000000     0.778530000000     0.05339    
H197     H      0.005320000000     0.547410000000     0.729750000000     0.0484467  
H198     H      0.975460000000     0.422210000000     0.720150000000     0.0488823  
H199     H      0.032670000000     0.429080000000     0.846290000000     0.0425431  
H200     H      0.988230000000     0.555970000000     0.659510000000     0.0425221  
H201     H      0.945900000000     0.506100000000     0.810580000000     0.0643566  
H202     H      0.019130000000     0.438970000000     0.695380000000     0.0472588  
H203     H      0.992060000000     0.549300000000     0.846470000000     0.052111   
H204     H      0.971500000000     0.432320000000     0.807530000000     0.0586703  
H205     H      0.034950000000     0.517150000000     0.699320000000     0.0578878  
H206     H      0.969600000000     0.431770000000     0.646220000000     0.0631154  
H207     H      0.057230000000     0.462500000000     0.813270000000     0.0364371  
H208     H      0.878440000000     0.471420000000     0.716480000000     0.180916   
H209     H      0.960180000000     0.505430000000     0.227680000000     0.0589375  
H210     H      0.045290000000     0.473000000000     0.326660000000     0.0506166  
H211     H      0.046330000000     0.573370000000     0.170030000000     0.0346598  
H212     H      0.083800000000     0.541580000000     0.221340000000     0.0474135  
H213     H      0.084020000000     0.511460000000     0.281060000000     0.0476737  
H214     H      0.960550000000     0.548660000000     0.273410000000     0.0460284  
H215     H      0.958600000000     0.502790000000     0.154210000000     0.0446222  
H216     H      0.077150000000     0.505580000000     0.353350000000     0.0420086  
H217     H      0.072300000000     0.492930000000     0.203410000000     0.0569599  
H218     H      0.995210000000     0.579070000000     0.297060000000     0.0490331  
H219     H      0.080010000000     0.538860000000     0.148030000000     0.0408814  
H220     H      0.994380000000     0.471360000000     0.207790000000     0.067251   
H221     H      0.069780000000     0.557390000000     0.303490000000     0.0532696  
H222     H      0.959950000000     0.549520000000     0.348290000000     0.0691008  
H223     H      0.969670000000     0.550710000000     0.172990000000     0.0325912  
H224     H      0.906040000000     0.462470000000     0.344870000000     0.186629   
H225     H      0.077140000000     0.725020000000     0.549470000000     0.0499892  
H226     H      0.967940000000     0.826770000000     0.493730000000     0.0427805  
H227     H      0.956870000000     0.683650000000     0.541250000000     0.0325195  
H228     H      0.958500000000     0.742450000000     0.501810000000     0.0497665  
H229     H      0.956770000000     0.783590000000     0.550490000000     0.0465624  
H230     H      0.084730000000     0.785390000000     0.529520000000     0.0552684  
H231     H      0.068180000000     0.653870000000     0.544280000000     0.0412477  
H232     H      0.955440000000     0.856390000000     0.535480000000     0.0434065  
H233     H      0.995140000000     0.723250000000     0.469840000000     0.0618822  
H234     H      0.062990000000     0.814780000000     0.567250000000     0.0507532  
H235     H      0.954690000000     0.669080000000     0.490540000000     0.0426211  
H236     H      0.068560000000     0.710260000000     0.498900000000     0.0641956  
H237     H      0.988530000000     0.812120000000     0.580420000000     0.0553289  
H238     H      0.079290000000     0.855200000000     0.510300000000     0.0639629  
H239     H      0.032030000000     0.676930000000     0.575500000000     0.0353553  
H240     H      0.074900000000     0.781080000000     0.427430000000     0.182306   
H241     H      0.951500000000     0.284860000000     0.481860000000     0.0501913  
H242     H      0.076550000000     0.180120000000     0.465710000000     0.0456528  
H243     H      0.063130000000     0.335160000000     0.519820000000     0.0323972  
H244     H      0.080500000000     0.286750000000     0.470590000000     0.0511999  
H245     H      0.076000000000     0.236750000000     0.508000000000     0.0475242  
H246     H      0.960260000000     0.228060000000     0.451810000000     0.0495715  
H247     H      0.952100000000     0.354700000000     0.495360000000     0.0482171  
H248     H      0.076040000000     0.163420000000     0.515680000000     0.0426681  
H249     H      0.051550000000     0.309930000000     0.433930000000     0.063263   
H250     H      0.963580000000     0.211330000000     0.502130000000     0.0499393  
H251     H      0.077030000000     0.360950000000     0.475920000000     0.0430269  
H252     H      0.973150000000     0.311250000000     0.441090000000     0.0628109  
H253     H      0.036860000000     0.218130000000     0.537270000000     0.0542809  
H254     H      0.963430000000     0.156100000000     0.459620000000     0.070182   
H255     H      0.981320000000     0.327740000000     0.530440000000     0.0369809  
H256     H      0.998700000000     0.146140000000     0.363000000000     0.181684   
H257     H      0.741170000000     0.071860000000     0.469100000000     0.0541933  
H258     H      0.837190000000     0.002350000000     0.551060000000     0.0490939  
H259     H      0.697510000000     0.958660000000     0.508960000000     0.0382727  
H260     H      0.746550000000     0.979840000000     0.560180000000     0.0504358  
H261     H      0.789440000000     0.951050000000     0.527730000000     0.0470961  
H262     H      0.788940000000     0.046940000000     0.440740000000     0.0465943  
H263     H      0.668640000000     0.063760000000     0.467660000000     0.044285   
H264     H      0.861240000000     0.958610000000     0.534230000000     0.0437751  
H265     H      0.722230000000     0.024970000000     0.565540000000     0.0603004  
H266     H      0.809790000000     0.000550000000     0.433560000000     0.0492724  
H267     H      0.674280000000     0.972170000000     0.554590000000     0.0443457  
H268     H      0.720310000000     0.075650000000     0.516420000000     0.0624314  
H269     H      0.812730000000     0.949480000000     0.481580000000     0.0550274  
H270     H      0.863110000000     0.043860000000     0.443230000000     0.0698756  
H271     H      0.693030000000     0.020570000000     0.449840000000     0.0360762  
H272     H      0.850900000000     0.135780000000     0.486880000000     0.182945   
H273     H      0.292750000000     0.944130000000     0.473800000000     0.0536946  
H274     H      0.196120000000     0.013810000000     0.556770000000     0.0481981  
H275     H      0.334870000000     0.058360000000     0.515380000000     0.033762   
H276     H      0.287170000000     0.034500000000     0.566290000000     0.0495532  
H277     H      0.244430000000     0.064180000000     0.533970000000     0.0458671  
H278     H      0.245310000000     0.969650000000     0.445530000000     0.0461001  
H279     H      0.364490000000     0.955460000000     0.468830000000     0.0433312  
H280     H      0.172070000000     0.057100000000     0.538980000000     0.0434598  
H281     H      0.312680000000     0.989860000000     0.570260000000     0.0591594  
H282     H      0.223370000000     0.015680000000     0.439420000000     0.0485244  
H283     H      0.359610000000     0.043350000000     0.559650000000     0.042678   
H284     H      0.315740000000     0.940830000000     0.520100000000     0.0610787  
H285     H      0.221510000000     0.066550000000     0.487620000000     0.0536121  
H286     H      0.171680000000     0.970150000000     0.449360000000     0.0691116  
H287     H      0.337960000000     0.998490000000     0.453720000000     0.034234   
H288     H      0.189270000000     0.879220000000     0.493610000000     0.183242   
H289     H      0.933710000000     0.773960000000     0.991070000000     0.0492225  
H290     H      0.053130000000     0.672060000000     0.954750000000     0.0474177  
H291     H      0.051020000000     0.813200000000     0.017710000000     0.0339964  
H292     H      0.059380000000     0.771040000000     0.959070000000     0.0528703  
H293     H      0.060230000000     0.725520000000     0.002290000000     0.048571   
H294     H      0.936360000000     0.715080000000     0.966590000000     0.0482881  
H295     H      0.940460000000     0.843150000000     0.008730000000     0.0457213  
H296     H      0.065040000000     0.652900000000     0.002390000000     0.0449967  
H297     H      0.025960000000     0.800130000000     0.931800000000     0.0640878  
H298     H      0.949820000000     0.697890000000     0.014910000000     0.0478538  
H299     H      0.063140000000     0.842870000000     0.975710000000     0.0475733  
H300     H      0.951180000000     0.802230000000     0.949740000000     0.0620703  
H301     H      0.026550000000     0.703230000000     0.035350000000     0.0552548  
H302     H      0.942780000000     0.642350000000     0.973380000000     0.063498   
H303     H      0.971760000000     0.812080000000     0.038030000000     0.0362178  
H304     H      0.995850000000     0.692650000000     0.875330000000     0.181543   
H305     H      0.972420000000     0.274330000000     0.066760000000     0.0594393  
H306     H      0.941390000000     0.173030000000     0.974500000000     0.0491394  
H307     H      0.063120000000     0.308890000000     0.992450000000     0.0322846  
H308     H      0.020770000000     0.274120000000     0.946250000000     0.0472617  
H309     H      0.982340000000     0.220950000000     0.942700000000     0.0483264  
H310     H      0.004380000000     0.221000000000     0.070010000000     0.0469532  
H311     H      0.991840000000     0.345320000000     0.072310000000     0.0477739  
H312     H      0.977040000000     0.148770000000     0.943860000000     0.0423208  
H313     H      0.979370000000     0.305690000000     0.956700000000     0.0603484  
H314     H      0.040410000000     0.199490000000     0.039340000000     0.048556   
H315     H      0.043250000000     0.341220000000     0.955640000000     0.0435882  
H316     H      0.950130000000     0.304480000000     0.030670000000     0.0695321  
H317     H      0.027520000000     0.197830000000     0.958940000000     0.0520865  
H318     H      0.004820000000     0.147420000000     0.067180000000     0.0671403  
H319     H      0.033240000000     0.313280000000     0.065050000000     0.0325677  
H320     H      0.906390000000     0.142620000000     0.098000000000     0.184323   
H321     H      0.774660000000     0.031190000000     0.942700000000     0.0564036  
H322     H      0.679270000000     0.953790000000     0.015420000000     0.0496987  
H323     H      0.820930000000     0.992710000000     0.056760000000     0.0388262  
H324     H      0.772140000000     0.941650000000     0.036010000000     0.0519438  
H325     H      0.729170000000     0.973420000000     0.065550000000     0.0487592  
H326     H      0.732550000000     0.063640000000     0.972840000000     0.048171   
H327     H      0.847160000000     0.035690000000     0.950970000000     0.0462384  
H328     H      0.656570000000     0.971710000000     0.059540000000     0.0474888  
H329     H      0.795850000000     0.936430000000     0.990270000000     0.0610243  
H330     H      0.711200000000     0.069300000000     0.019370000000     0.0509718  
H331     H      0.844710000000     0.947970000000     0.042130000000     0.0489603  
H332     H      0.797280000000     0.984930000000     0.939820000000     0.0635858  
H333     H      0.708330000000     0.020460000000     0.069340000000     0.056084   
H334     H      0.658730000000     0.062640000000     0.974030000000     0.0737373  
H335     H      0.822560000000     0.052410000000     0.994710000000     0.0374588  
H336     H      0.674540000000     0.020430000000     0.881420000000     0.183234   
H337     H      0.276440000000     0.959280000000     0.994140000000     0.0568883  
H338     H      0.171370000000     0.012160000000     0.076370000000     0.0490712  
H339     H      0.322040000000     0.077920000000     0.003680000000     0.0325012  
H340     H      0.279200000000     0.071500000000     0.059210000000     0.0473172  
H341     H      0.218330000000     0.061990000000     0.066600000000     0.0471621  
H342     H      0.230170000000     0.985120000000     0.962800000000     0.0447977  
H343     H      0.345840000000     0.969820000000     0.976070000000     0.0471888  
H344     H      0.145470000000     0.055070000000     0.060880000000     0.0432133  
H345     H      0.304130000000     0.028970000000     0.078030000000     0.0588829  
H346     H      0.202500000000     0.028490000000     0.961060000000     0.0486643  
H347     H      0.350940000000     0.074550000000     0.047760000000     0.0431416  
H348     H      0.305540000000     0.965300000000     0.036600000000     0.0653523  
H349     H      0.199000000000     0.077120000000     0.019650000000     0.0512262  
H350     H      0.158650000000     0.974410000000     0.965790000000     0.0682134  
H351     H      0.317020000000     0.010810000000     0.959070000000     0.0333346  
H352     H      0.179020000000     0.885050000000     0.011350000000     0.182828   
H353     H      0.956280000000     0.984160000000     0.725230000000     0.0609892  
H354     H      0.042980000000     0.948130000000     0.824140000000     0.0495408  
H355     H      0.037350000000     0.068540000000     0.682990000000     0.0341741  
H356     H      0.077530000000     0.029070000000     0.726350000000     0.0472446  
H357     H      0.078510000000     0.992130000000     0.781750000000     0.0469914  
H358     H      0.952870000000     0.022130000000     0.775230000000     0.0542911  
H359     H      0.952710000000     0.999160000000     0.653590000000     0.0441794  
H360     H      0.071410000000     0.981190000000     0.853990000000     0.0435313  
H361     H      0.068210000000     0.984590000000     0.698880000000     0.056829   
H362     H      0.984640000000     0.051030000000     0.804080000000     0.0515362  
H363     H      0.072610000000     0.041340000000     0.654210000000     0.0423302  
H364     H      0.992520000000     0.958430000000     0.697920000000     0.0621948  
H365     H      0.061550000000     0.035360000000     0.807530000000     0.052636   
H366     H      0.948340000000     0.009870000000     0.847870000000     0.0646461  
H367     H      0.962830000000     0.042120000000     0.682480000000     0.0337571  
H368     H      0.913460000000     0.927770000000     0.786480000000     0.182603   
H369     H      0.019090000000     0.916840000000     0.285100000000     0.0508544  
H370     H      0.965740000000     0.029780000000     0.189690000000     0.046838   
H371     H      0.039550000000     0.035410000000     0.313670000000     0.0330594  
H372     H      0.977720000000     0.038660000000     0.274190000000     0.0537106  
H373     H      0.025270000000     0.039250000000     0.231470000000     0.0480609  
H374     H      0.992190000000     0.914580000000     0.225900000000     0.0488799  
H375     H      0.035320000000     0.929700000000     0.355580000000     0.0495121  
H376     H      0.006830000000     0.046390000000     0.161190000000     0.0461678  
H377     H      0.954200000000     0.006240000000     0.307590000000     0.0647972  
H378     H      0.035290000000     0.931040000000     0.200110000000     0.049227   
H379     H      0.998730000000     0.050590000000     0.343590000000     0.0481003  
H380     H      0.976710000000     0.932450000000     0.313010000000     0.0621301  
H381     H      0.052410000000     0.006710000000     0.201050000000     0.0573509  
H382     H      0.985020000000     0.922570000000     0.152160000000     0.0642514  
H383     H      0.063320000000     0.959230000000     0.321620000000     0.0367453  
H384     H      0.894610000000     0.967450000000     0.221050000000     0.181802   
N1       N      0.490180000000     0.515330000000     0.872750000000    -0.153898   
N2       N      0.520690000000     0.515800000000     0.671150000000    -0.165633   
N3       N      0.495180000000     0.504400000000     0.373980000000    -0.152622   
N4       N      0.526160000000     0.506970000000     0.169210000000    -0.165152   
N5       N      0.525320000000     0.862620000000     0.486560000000    -0.151222   
N6       N      0.495870000000     0.660040000000     0.516680000000    -0.165043   
N7       N      0.499140000000     0.359840000000     0.529940000000    -0.15129    
N8       N      0.517170000000     0.155840000000     0.539200000000    -0.164418   
N9       N      0.495510000000     0.868090000000     0.026330000000    -0.151479   
N10      N      0.516000000000     0.662350000000     0.019570000000    -0.164883   
N11      N      0.510770000000     0.164900000000     0.004090000000    -0.150917   
N12      N      0.521900000000     0.362710000000     0.012770000000    -0.16496    
N13      N      0.505220000000     0.006140000000     0.861530000000    -0.152641   
N14      N      0.511720000000     0.979300000000     0.657720000000    -0.165259   
N15      N      0.505500000000     0.025060000000     0.160420000000    -0.153278   
N16      N      0.508340000000     0.040850000000     0.364860000000    -0.165346   
N17      N      0.855160000000     0.508840000000     0.484570000000    -0.152013   
N18      N      0.651550000000     0.510150000000     0.514260000000    -0.164781   
N19      N      0.353720000000     0.506230000000     0.534600000000    -0.151995   
N20      N      0.152180000000     0.514960000000     0.526880000000    -0.165371   
N21      N      0.866020000000     0.478350000000     0.000500000000    -0.152912   
N22      N      0.662040000000     0.517720000000     0.006550000000    -0.164451   
N23      N      0.164440000000     0.497600000000     0.990070000000    -0.150902   
N24      N      0.364840000000     0.507660000000     0.037340000000    -0.164673   
N25      N      0.975370000000     0.494440000000     0.649390000000    -0.153472   
N26      N      0.014630000000     0.489810000000     0.849820000000    -0.163431   
N27      N      0.015400000000     0.520070000000     0.354800000000    -0.151566   
N28      N      0.018740000000     0.522540000000     0.146970000000    -0.164064   
N29      N      0.016380000000     0.858670000000     0.516810000000    -0.152002   
N30      N      0.009270000000     0.657070000000     0.520810000000    -0.165214   
N31      N      0.022150000000     0.155030000000     0.482930000000    -0.153051   
N32      N      0.015140000000     0.361610000000     0.490320000000    -0.164032   
N33      N      0.866520000000     0.009210000000     0.495950000000    -0.151517   
N34      N      0.667040000000     0.013100000000     0.506320000000    -0.163984   
N35      N      0.167650000000     0.005840000000     0.501390000000    -0.151682   
N36      N      0.366160000000     0.004660000000     0.509350000000    -0.16502    
N37      N      0.005240000000     0.643110000000     0.982480000000    -0.153309   
N38      N      0.002920000000     0.846550000000     0.996260000000    -0.163671   
N39      N      0.986370000000     0.143890000000     0.006590000000    -0.153243   
N40      N      0.019110000000     0.347210000000     0.014700000000    -0.164112   
N41      N      0.653070000000     0.010200000000     0.008790000000    -0.151158   
N42      N      0.850280000000     0.996860000000     0.001540000000    -0.163775   
N43      N      0.148140000000     0.007710000000     0.018570000000    -0.151784   
N44      N      0.352450000000     0.023920000000     0.008990000000    -0.164219   
N45      N      0.008510000000     0.990630000000     0.854400000000    -0.150663   
N46      N      0.012170000000     0.021930000000     0.650140000000    -0.164581   
N47      N      0.990330000000     0.985310000000     0.153330000000    -0.153097   
N48      N      0.019850000000     0.991210000000     0.353010000000    -0.163718   
O1       O      0.999720000000     0.995390000000     0.004060000000    -0.369765   
O2       O      0.976270000000     0.961850000000     0.091660000000    -0.294858   
O3       O      0.085370000000     0.026030000000     0.036610000000    -0.300961   
O4       O      0.031420000000     0.906370000000     0.983120000000    -0.296112   
O5       O      0.010680000000     0.016860000000     0.097410000000    -0.302369   
O6       O      0.974880000000     0.904160000000     0.015830000000    -0.303825   
O7       O      0.093260000000     0.980440000000     0.990530000000    -0.299094   
O8       O      0.979020000000     0.011600000000     0.911310000000    -0.302249   
O9       O      0.008770000000     0.086240000000     0.032960000000    -0.300134   
O10      O      0.033460000000     0.975760000000     0.915440000000    -0.298044   
O11      O      0.977150000000     0.084690000000     0.975710000000    -0.301451   
O12      O      0.909950000000     0.017310000000     0.977570000000    -0.301759   
O13      O      0.908660000000     0.971900000000     0.024310000000    -0.300198   
O14      O      0.017190000000     0.007050000000     0.501610000000    -0.368751   
O15      O      0.044460000000     0.099350000000     0.514280000000    -0.300576   
O16      O      0.999130000000     0.022900000000     0.408680000000    -0.299254   
O17      O      0.108250000000     0.982340000000     0.479490000000    -0.298212   
O18      O      0.996220000000     0.094540000000     0.470480000000    -0.294796   
O19      O      0.108740000000     0.029810000000     0.524050000000    -0.303782   
O20      O      0.038000000000     0.970830000000     0.414660000000    -0.298364   
O21      O      0.989810000000     0.919020000000     0.530660000000    -0.302249   
O22      O      0.926770000000     0.029460000000     0.472690000000    -0.296638   
O23      O      0.042770000000     0.915230000000     0.492510000000    -0.294938   
O24      O      0.924630000000     0.987660000000     0.522570000000    -0.303866   
O25      O      0.989390000000     0.994980000000     0.592660000000    -0.301109   
O26      O      0.039650000000     0.036830000000     0.590320000000    -0.301652   
O27      O      0.014880000000     0.495300000000     0.999600000000    -0.369468   
O28      O      0.034800000000     0.404140000000     0.983140000000    -0.30726    
O29      O      0.994200000000     0.489450000000     0.093630000000    -0.300774   
O30      O      0.105980000000     0.523820000000     0.010540000000    -0.303762   
O31      O      0.999720000000     0.407680000000     0.038260000000    -0.295126   
O32      O      0.105070000000     0.468390000000     0.976260000000    -0.298798   
O33      O      0.043870000000     0.531050000000     0.084770000000    -0.301394   
O34      O      0.980340000000     0.581230000000     0.974270000000    -0.295263   
O35      O      0.926690000000     0.469860000000     0.028730000000    -0.295236   
O36      O      0.036650000000     0.588550000000     0.006600000000    -0.301822   
O37      O      0.922270000000     0.503740000000     0.973060000000    -0.301031   
O38      O      0.992630000000     0.514790000000     0.908310000000    -0.299088   
O39      O      0.034430000000     0.464780000000     0.909350000000    -0.300344   
O40      O      0.004040000000     0.509360000000     0.503320000000    -0.370188   
O41      O      0.982770000000     0.417060000000     0.509030000000    -0.302662   
O42      O      0.038070000000     0.497490000000     0.414260000000    -0.29913    
O43      O      0.915650000000     0.537370000000     0.476800000000    -0.30098    
O44      O      0.040150000000     0.423250000000     0.478240000000    -0.298886   
O45      O      0.911780000000     0.480250000000     0.507770000000    -0.294149   
O46      O      0.987450000000     0.538940000000     0.413520000000    -0.293478   
O47      O      0.027810000000     0.594840000000     0.536970000000    -0.307177   
O48      O      0.098970000000     0.498970000000     0.488660000000    -0.305485   
O49      O      0.983930000000     0.603060000000     0.489150000000    -0.301376   
O50      O      0.088790000000     0.523710000000     0.548210000000    -0.305434   
O51      O      0.005680000000     0.525300000000     0.597890000000    -0.306029   
O52      O      0.969200000000     0.472570000000     0.585770000000    -0.29452    
O53      O      0.502530000000     0.016170000000     0.010950000000    -0.368994   
O54      O      0.410370000000     0.994870000000     0.989780000000    -0.299008   
O55      O      0.477660000000     0.041810000000     0.101150000000    -0.302044   
O56      O      0.520740000000     0.928200000000     0.042930000000    -0.299634   
O57      O      0.412570000000     0.045580000000     0.030640000000    -0.303911   
O58      O      0.476670000000     0.924790000000     0.994710000000    -0.293415   
O59      O      0.529810000000     0.002560000000     0.101970000000    -0.296924   
O60      O      0.594490000000     0.035430000000     0.986950000000    -0.2966     
O61      O      0.484910000000     0.108520000000     0.030820000000    -0.301699   
O62      O      0.593510000000     0.989630000000     0.033100000000    -0.302024   
O63      O      0.528690000000     0.103740000000     0.982470000000    -0.294285   
O64      O      0.528500000000     0.030440000000     0.919760000000    -0.293547   
O65      O      0.477790000000     0.989320000000     0.921080000000    -0.300661   
O66      O      0.516290000000     0.009430000000     0.511050000000    -0.367409   
O67      O      0.424170000000     0.028390000000     0.534610000000    -0.303994   
O68      O      0.488490000000     0.004680000000     0.418270000000    -0.302626   
O69      O      0.537740000000     0.101990000000     0.504520000000    -0.305024   
O70      O      0.426300000000     0.984420000000     0.486530000000    -0.305218   
O71      O      0.493490000000     0.093900000000     0.552000000000    -0.302091   
O72      O      0.536480000000     0.048280000000     0.425460000000    -0.306081   
O73      O      0.609280000000     0.987090000000     0.529870000000    -0.301753   
O74      O      0.498900000000     0.922980000000     0.471600000000    -0.300494   
O75      O      0.606600000000     0.037400000000     0.488700000000    -0.304715   
O76      O      0.543370000000     0.918600000000     0.519360000000    -0.299681   
O77      O      0.541500000000     0.974490000000     0.597460000000    -0.30483    
O78      O      0.487840000000     0.011250000000     0.603350000000    -0.303801   
O79      O      0.513280000000     0.512210000000     0.020250000000    -0.36855    
O80      O      0.420570000000     0.535980000000     0.012360000000    -0.300575   
O81      O      0.497480000000     0.419150000000     0.040070000000    -0.305642   
O82      O      0.522200000000     0.491310000000     0.926880000000    -0.305029   
O83      O      0.426260000000     0.482490000000     0.049410000000    -0.302484   
O84      O      0.478160000000     0.538870000000     0.934700000000    -0.296107   
O85      O      0.540230000000     0.423870000000     0.991010000000    -0.303438   
O86      O      0.604860000000     0.532620000000     0.038950000000    -0.304027   
O87      O      0.501850000000     0.482210000000     0.111330000000    -0.303103   
O88      O      0.601590000000     0.498180000000     0.983410000000    -0.302145   
O89      O      0.539580000000     0.535430000000     0.109730000000    -0.305441   
O90      O      0.540030000000     0.603140000000     0.041370000000    -0.30398    
O91      O      0.487620000000     0.603790000000     0.002640000000    -0.304933   
O92      O      0.502500000000     0.509890000000     0.523070000000    -0.369296   
O93      O      0.410130000000     0.525480000000     0.502880000000    -0.299517   
O94      O      0.478070000000     0.420310000000     0.551230000000    -0.297977   
O95      O      0.519090000000     0.480500000000     0.432550000000    -0.298327   
O96      O      0.415030000000     0.491610000000     0.558640000000    -0.294728   
O97      O      0.476810000000     0.530260000000     0.433300000000    -0.295829   
O98      O      0.523470000000     0.417290000000     0.504540000000    -0.297987   
O99      O      0.593630000000     0.537050000000     0.535650000000    -0.304548   
O100     O      0.493260000000     0.488340000000     0.616210000000    -0.303925   
O101     O      0.591640000000     0.483800000000     0.497920000000    -0.302452   
O102     O      0.531700000000     0.540670000000     0.609540000000    -0.304642   
O103     O      0.524310000000     0.602880000000     0.537790000000    -0.30667    
O104     O      0.472140000000     0.599370000000     0.498880000000    -0.302      
O105     O      0.420030000000     0.525780000000     0.809550000000    -0.342672   
O106     O      0.405370000000     0.553860000000     0.867120000000    -0.237768   
O107     O      0.407670000000     0.546380000000     0.365520000000    -0.33284    
O108     O      0.427160000000     0.511180000000     0.313600000000    -0.247971   
O109     O      0.604590000000     0.790520000000     0.489170000000    -0.347578   
O110     O      0.602830000000     0.850220000000     0.462320000000    -0.237565   
O111     O      0.525390000000     0.337590000000     0.432460000000    -0.3381     
O112     O      0.477910000000     0.306360000000     0.465370000000    -0.246232   
O113     O      0.399600000000     0.859460000000     0.011000000000    -0.334438   
O114     O      0.427150000000     0.811350000000     0.046080000000    -0.247452   
O115     O      0.612390000000     0.170550000000     0.979740000000    -0.334666   
O116     O      0.583150000000     0.200160000000     0.030620000000    -0.245339   
O117     O      0.513870000000     0.068720000000     0.793810000000    -0.342484   
O118     O      0.551670000000     0.087760000000     0.844090000000    -0.233056   
O119     O      0.517840000000     0.960350000000     0.224270000000    -0.342477   
O120     O      0.560550000000     0.947450000000     0.176030000000    -0.238248   
O121     O      0.853080000000     0.427300000000     0.433290000000    -0.333934   
O122     O      0.801000000000     0.466250000000     0.424430000000    -0.247203   
O123     O      0.299340000000     0.433400000000     0.543610000000    -0.341804   
O124     O      0.348860000000     0.424730000000     0.585940000000    -0.239449   
O125     O      0.802240000000     0.409000000000     0.014520000000    -0.341815   
O126     O      0.859880000000     0.396440000000     0.043440000000    -0.23627    
O127     O      0.225430000000     0.580870000000     0.953400000000    -0.347059   
O128     O      0.184400000000     0.538650000000     0.924570000000    -0.237041   
O129     O      0.906380000000     0.470710000000     0.710620000000    -0.342014   
O130     O      0.896880000000     0.444720000000     0.651000000000    -0.237549   
O131     O      0.921520000000     0.486280000000     0.347130000000    -0.333751   
O132     O      0.967550000000     0.464720000000     0.305440000000    -0.245777   
O133     O      0.074700000000     0.790740000000     0.454310000000    -0.346013   
O134     O      0.031580000000     0.838110000000     0.440510000000    -0.234955   
O135     O      0.990610000000     0.146730000000     0.390400000000    -0.32987    
O136     O      0.027540000000     0.199210000000     0.403880000000    -0.246318   
O137     O      0.853200000000     0.110520000000     0.473930000000    -0.338352   
O138     O      0.827750000000     0.078210000000     0.525190000000    -0.245302   
O139     O      0.186050000000     0.904190000000     0.480280000000    -0.33873    
O140     O      0.206440000000     0.938430000000     0.532520000000    -0.24628    
O141     O      0.993270000000     0.691270000000     0.903770000000    -0.340535   
O142     O      0.955810000000     0.637530000000     0.901300000000    -0.238592   
O143     O      0.932890000000     0.141350000000     0.087420000000    -0.335577   
O144     O      0.924440000000     0.194740000000     0.050260000000    -0.245592   
O145     O      0.672130000000     0.033200000000     0.906850000000    -0.335914   
O146     O      0.688710000000     0.979000000000     0.939860000000    -0.245147   
O147     O      0.173320000000     0.909820000000     0.998470000000    -0.337776   
O148     O      0.200160000000     0.944990000000     0.047010000000    -0.246484   
O149     O      0.924870000000     0.952790000000     0.793890000000    -0.346953   
O150     O      0.968540000000     0.925040000000     0.834280000000    -0.237978   
O151     O      0.922420000000     0.966770000000     0.214620000000    -0.341801   
O152     O      0.912660000000     0.931390000000     0.160160000000    -0.237663   
Zn1      Zn     0.965920000000     0.959440000000     0.033040000000     0.460212   
Zn2      Zn     0.025610000000     0.030250000000     0.041600000000     0.452998   
Zn3      Zn     0.038580000000     0.965250000000     0.974250000000     0.45306    
Zn4      Zn     0.967800000000     0.026350000000     0.967780000000     0.453933   
Zn5      Zn     0.051340000000     0.042430000000     0.531970000000     0.449318   
Zn6      Zn     0.985440000000     0.037340000000     0.464630000000     0.459282   
Zn7      Zn     0.050510000000     0.970110000000     0.472910000000     0.458155   
Zn8      Zn     0.981400000000     0.977850000000     0.535990000000     0.451614   
Zn9      Zn     0.046340000000     0.459290000000     0.967810000000     0.453849   
Zn10     Zn     0.985160000000     0.466190000000     0.039450000000     0.450386   
Zn11     Zn     0.049490000000     0.533450000000     0.024870000000     0.451243   
Zn12     Zn     0.978200000000     0.522850000000     0.965260000000     0.456947   
Zn13     Zn     0.967890000000     0.471010000000     0.525760000000     0.458284   
Zn14     Zn     0.044330000000     0.482960000000     0.471840000000     0.449969   
Zn15     Zn     0.973900000000     0.546710000000     0.471580000000     0.452554   
Zn16     Zn     0.030820000000     0.536880000000     0.545510000000     0.454255   
Zn17     Zn     0.467850000000     0.982030000000     0.979810000000     0.450127   
Zn18     Zn     0.470330000000     0.051970000000     0.042620000000     0.450589   
Zn19     Zn     0.535790000000     0.985140000000     0.045900000000     0.459062   
Zn20     Zn     0.537280000000     0.045680000000     0.976140000000     0.462023   
Zn21     Zn     0.481510000000     0.035400000000     0.549140000000     0.448217   
Zn22     Zn     0.483840000000     0.980730000000     0.472850000000     0.450532   
Zn23     Zn     0.548460000000     0.047910000000     0.483300000000     0.454869   
Zn24     Zn     0.551830000000     0.973890000000     0.538880000000     0.452576   
Zn25     Zn     0.475910000000     0.546780000000     0.993610000000     0.455651   
Zn26     Zn     0.485390000000     0.475090000000     0.054290000000     0.45081    
Zn27     Zn     0.543800000000     0.482480000000     0.981460000000     0.449678   
Zn28     Zn     0.548180000000     0.545010000000     0.051830000000     0.45088    
Zn29     Zn     0.466370000000     0.540510000000     0.490600000000     0.454341   
Zn30     Zn     0.473030000000     0.478650000000     0.561280000000     0.455159   
Zn31     Zn     0.533340000000     0.473870000000     0.490360000000     0.45283    
Zn32     Zn     0.536920000000     0.546720000000     0.550500000000     0.452206   


