data_structure

_audit_creation_method RASPA-1.0
_audit_creation_date 2023-5-25
_audit_author_name 'Poobodin Mano'

_cell_length_a    33.8903
_cell_length_b    33.8345
_cell_length_c    34.1819
_cell_angle_alpha 90
_cell_angle_beta  90
_cell_angle_gamma 90
_cell_volume      39195.1

_symmetry_cell_setting          triclinic
_symmetry_space_group_name_Hall 'P 1'
_symmetry_space_group_name_H-M  'P 1'
_symmetry_Int_Tables_number     1

_symmetry_equiv_pos_as_xyz 'x,y,z'

loop_
_atom_site_label
_atom_site_type_symbol
_atom_site_fract_x
_atom_site_fract_y
_atom_site_fract_z
_atom_site_charge
C1       C      0.897360000000     0.026400000000     0.003560000000     0.369049   
C2       C      0.023690000000     0.119890000000     0.999410000000     0.366836   
C3       C      0.006030000000     0.020040000000     0.113100000000     0.366851   
C4       C      0.115350000000     0.992760000000     0.007060000000     0.36802    
C5       C      0.008200000000     0.010880000000     0.896710000000     0.368195   
C6       C      0.989090000000     0.904340000000     0.007980000000     0.360202   
C7       C      0.114580000000     0.008450000000     0.506320000000     0.369019   
C8       C      0.011990000000     0.890890000000     0.501030000000     0.36704    
C9       C      0.006230000000     0.995090000000     0.613300000000     0.364672   
C10      C      0.895280000000     0.994240000000     0.506970000000     0.368526   
C11      C      0.004890000000     0.998230000000     0.395660000000     0.363776   
C12      C      0.998640000000     0.108330000000     0.503250000000     0.363853   
C13      C      0.001710000000     0.509950000000     0.905080000000     0.368486   
C14      C      0.012280000000     0.402260000000     0.014800000000     0.364042   
C15      C      0.107420000000     0.528500000000     0.015630000000     0.363909   
C16      C      0.996920000000     0.504770000000     0.122410000000     0.367683   
C17      C      0.890760000000     0.502420000000     0.007030000000     0.361774   
C18      C      0.987850000000     0.620030000000     0.018730000000     0.365134   
C19      C      0.010710000000     0.509800000000     0.406910000000     0.363093   
C20      C      0.004590000000     0.391830000000     0.507650000000     0.36126    
C21      C      0.125350000000     0.488380000000     0.514540000000     0.366764   
C22      C      0.022710000000     0.499490000000     0.623180000000     0.36302    
C23      C      0.906910000000     0.508470000000     0.523740000000     0.366717   
C24      C      0.026750000000     0.609280000000     0.515730000000     0.363881   
C25      C      0.397740000000     0.002840000000     0.987260000000     0.363128   
C26      C      0.505260000000     0.000550000000     0.101770000000     0.367464   
C27      C      0.516530000000     0.901690000000     0.990280000000     0.367558   
C28      C      0.615290000000     0.025710000000     0.995980000000     0.363913   
C29      C      0.493630000000     0.119320000000     0.002330000000     0.366694   
C30      C      0.513080000000     0.013730000000     0.885290000000     0.366135   
C31      C      0.396420000000     0.027430000000     0.490250000000     0.364525   
C32      C      0.506730000000     0.015130000000     0.385030000000     0.363553   
C33      C      0.523330000000     0.119900000000     0.494560000000     0.363975   
C34      C      0.612770000000     0.994470000000     0.498630000000     0.363504   
C35      C      0.490260000000     0.902350000000     0.490000000000     0.361915   
C36      C      0.497880000000     0.011050000000     0.601820000000     0.362239   
C37      C      0.392070000000     0.509520000000     0.992860000000     0.367394   
C38      C      0.497640000000     0.402050000000     0.010480000000     0.362016   
C39      C      0.499700000000     0.509600000000     0.891270000000     0.366836   
C40      C      0.609650000000     0.503280000000     0.995260000000     0.366982   
C41      C      0.500350000000     0.519340000000     0.108160000000     0.366996   
C42      C      0.504910000000     0.620330000000     0.001340000000     0.363586   
C43      C      0.407320000000     0.496660000000     0.508850000000     0.361071   
C44      C      0.529330000000     0.401700000000     0.497820000000     0.367701   
C45      C      0.511240000000     0.503860000000     0.391610000000     0.362623   
C46      C      0.624000000000     0.526400000000     0.499740000000     0.362193   
C47      C      0.522040000000     0.512510000000     0.608300000000     0.362543   
C48      C      0.500510000000     0.619000000000     0.491270000000     0.36586    
C49      C      0.540050000000     0.547780000000     0.669190000000     0.00821177 
C50      C      0.506260000000     0.473240000000     0.828630000000     0.0198576  
C51      C      0.484170000000     0.544730000000     0.829650000000     0.186185   
C52      C      0.532480000000     0.481680000000     0.793220000000    -0.111047   
C53      C      0.515780000000     0.554450000000     0.706480000000    -0.0974713  
C54      C      0.511030000000     0.553870000000     0.794580000000    -0.153093   
C55      C      0.513800000000     0.516780000000     0.730460000000     0.0139895  
C56      C      0.517240000000     0.516910000000     0.770280000000     0.0480767  
C57      C      0.524200000000     0.475050000000     0.670530000000     0.00824078 
C58      C      0.500230000000     0.480540000000     0.707980000000    -0.0972508  
C59      C      0.470980000000     0.501700000000     0.331080000000     0.00809093 
C60      C      0.534640000000     0.540990000000     0.168370000000     0.0197649  
C61      C      0.463810000000     0.517930000000     0.171180000000     0.185401   
C62      C      0.544990000000     0.516380000000     0.204520000000    -0.111225   
C63      C      0.474590000000     0.526250000000     0.293710000000    -0.0971989  
C64      C      0.473030000000     0.494130000000     0.208220000000    -0.15109    
C65      C      0.510030000000     0.513510000000     0.269610000000     0.0127908  
C66      C      0.508670000000     0.510580000000     0.229760000000     0.0471812  
C67      C      0.543710000000     0.486570000000     0.329060000000     0.00826509 
C68      C      0.548590000000     0.511720000000     0.292090000000    -0.0980008  
C69      C      0.453810000000     0.843370000000     0.466180000000     0.0061659  
C70      C      0.518890000000     0.686210000000     0.513030000000     0.0191929  
C71      C      0.475370000000     0.676200000000     0.453100000000     0.183086   
C72      C      0.492910000000     0.720830000000     0.525220000000    -0.111305   
C73      C      0.466200000000     0.803390000000     0.448250000000    -0.0979431  
C74      C      0.452170000000     0.713920000000     0.464060000000    -0.150569   
C75      C      0.488390000000     0.778550000000     0.477980000000     0.0181477  
C76      C      0.477490000000     0.741110000000     0.488890000000     0.0451876  
C77      C      0.508220000000     0.836900000000     0.516760000000     0.00846612 
C78      C      0.523120000000     0.800150000000     0.495750000000    -0.09903    
C79      C      0.565900000000     0.176640000000     0.476390000000     0.00665632 
C80      C      0.508170000000     0.335820000000     0.521070000000     0.0190756  
C81      C      0.555260000000     0.342740000000     0.463210000000     0.183723   
C82      C      0.532070000000     0.300370000000     0.535100000000    -0.11116    
C83      C      0.557370000000     0.217350000000     0.458180000000    -0.0982502  
C84      C      0.576880000000     0.305100000000     0.476820000000    -0.151097   
C85      C      0.535340000000     0.243240000000     0.487110000000     0.0195127  
C86      C      0.548810000000     0.279160000000     0.499920000000     0.0450885  
C87      C      0.508070000000     0.185560000000     0.522630000000     0.00853955 
C88      C      0.497850000000     0.224200000000     0.502100000000    -0.0993469  
C89      C      0.531720000000     0.681130000000     0.031920000000     0.00683924 
C90      C      0.492460000000     0.837130000000     0.965570000000     0.0186957  
C91      C      0.552020000000     0.840880000000     0.010660000000     0.183841   
C92      C      0.477000000000     0.802110000000     0.989290000000    -0.110324   
C93      C      0.552880000000     0.716440000000     0.013210000000    -0.0984039  
C94      C      0.536470000000     0.804590000000     0.032920000000    -0.150871   
C95      C      0.522610000000     0.742310000000     0.992840000000     0.0203829  
C96      C      0.511780000000     0.779250000000     0.005590000000     0.045743   
C97      C      0.478680000000     0.685210000000     0.979680000000     0.0077754  
C98      C      0.500980000000     0.719730000000     0.961060000000    -0.0994789  
C99      C      0.480580000000     0.343210000000     0.050530000000     0.00645334 
C100     C      0.511490000000     0.186060000000     0.978630000000     0.0195766  
C101     C      0.458180000000     0.177200000000     0.030200000000     0.183294   
C102     C      0.528260000000     0.220510000000     0.001950000000    -0.111481   
C103     C      0.458430000000     0.304700000000     0.040730000000    -0.0979726  
C104     C      0.473150000000     0.214730000000     0.051210000000    -0.150718   
C105     C      0.483150000000     0.279100000000     0.013740000000     0.0177665  
C106     C      0.494800000000     0.241400000000     0.022640000000     0.0452595  
C107     C      0.520760000000     0.336320000000     0.988410000000     0.00852088 
C108     C      0.496010000000     0.300550000000     0.977010000000    -0.0986831  
C109     C      0.499910000000     0.974280000000     0.664550000000     0.00804171 
C110     C      0.532310000000     0.048350000000     0.824410000000     0.0199077  
C111     C      0.513930000000     0.975880000000     0.823250000000     0.185458   
C112     C      0.508340000000     0.055710000000     0.787020000000    -0.111478   
C113     C      0.524620000000     0.982130000000     0.701150000000    -0.0973127  
C114     C      0.490340000000     0.982430000000     0.785640000000    -0.151615   
C115     C      0.509280000000     0.017810000000     0.723390000000     0.0127568  
C116     C      0.505370000000     0.018060000000     0.763150000000     0.0477127  
C117     C      0.479130000000     0.045820000000     0.662770000000     0.00812524 
C118     C      0.504490000000     0.054830000000     0.698880000000    -0.0981399  
C119     C      0.541410000000     0.032810000000     0.323790000000     0.00828284 
C120     C      0.468010000000     0.000740000000     0.164190000000     0.0203073  
C121     C      0.539490000000     0.979360000000     0.162200000000     0.186314   
C122     C      0.475730000000     0.024400000000     0.201480000000    -0.110876   
C123     C      0.548990000000     0.007800000000     0.287120000000    -0.0975146  
C124     C      0.548240000000     0.003810000000     0.199060000000    -0.152965   
C125     C      0.511460000000     0.004340000000     0.263220000000     0.013639   
C126     C      0.511190000000     0.008360000000     0.223500000000     0.0482763  
C127     C      0.469350000000     0.014140000000     0.322810000000     0.00824236 
C128     C      0.475850000000     0.989650000000     0.285850000000    -0.0972461  
C129     C      0.682940000000     0.564450000000     0.521410000000     0.00642977 
C130     C      0.841590000000     0.485100000000     0.500980000000     0.0194325  
C131     C      0.846680000000     0.531580000000     0.558790000000     0.183065   
C132     C      0.809140000000     0.510670000000     0.483500000000    -0.110984   
C133     C      0.719500000000     0.551060000000     0.544810000000    -0.0971642  
C134     C      0.810320000000     0.554580000000     0.543560000000    -0.150224   
C135     C      0.745550000000     0.524000000000     0.520420000000     0.0151374  
C136     C      0.785460000000     0.529200000000     0.516290000000     0.0450228  
C137     C      0.690140000000     0.505760000000     0.476500000000     0.008375   
C138     C      0.723300000000     0.489790000000     0.502090000000    -0.0980142  
C139     C      0.350790000000     0.458420000000     0.534860000000     0.00616764 
C140     C      0.190130000000     0.511100000000     0.490210000000     0.0191311  
C141     C      0.185290000000     0.463160000000     0.547760000000     0.183519   
C142     C      0.226850000000     0.489120000000     0.476360000000    -0.111427   
C143     C      0.310770000000     0.468300000000     0.553820000000    -0.0982136  
C144     C      0.224180000000     0.443820000000     0.534260000000    -0.150955   
C145     C      0.284090000000     0.488550000000     0.524390000000     0.0196943  
C146     C      0.248750000000     0.473480000000     0.511630000000     0.0455099  
C147     C      0.340420000000     0.514360000000     0.486080000000     0.0081161  
C148     C      0.302710000000     0.525530000000     0.507760000000    -0.0994028  
C149     C      0.833370000000     0.478530000000     0.968990000000     0.00650328 
C150     C      0.674410000000     0.525300000000     0.020440000000     0.0186786  
C151     C      0.669330000000     0.467500000000     0.972700000000     0.183823   
C152     C      0.711830000000     0.538720000000     0.999510000000    -0.110924   
C153     C      0.794100000000     0.458730000000     0.979870000000    -0.0981652  
C154     C      0.708610000000     0.480660000000     0.954120000000    -0.151052   
C155     C      0.767630000000     0.488610000000     0.999880000000     0.0201915  
C156     C      0.733180000000     0.502730000000     0.984110000000     0.0455438  
C157     C      0.824450000000     0.526980000000     0.025270000000     0.00786744 
C158     C      0.786530000000     0.505350000000     0.036440000000    -0.0995287  
C159     C      0.170300000000     0.520860000000     0.051600000000     0.00988654 
C160     C      0.331130000000     0.526550000000     0.956200000000     0.0206231  
C161     C      0.329850000000     0.474050000000     0.007530000000     0.186962   
C162     C      0.292870000000     0.545070000000     0.971620000000    -0.108293   
C163     C      0.207210000000     0.500540000000     0.036100000000    -0.0953691  
C164     C      0.293130000000     0.491710000000     0.026680000000    -0.152502   
C165     C      0.229780000000     0.525340000000     0.006190000000     0.010239   
C166     C      0.269440000000     0.518780000000     0.999670000000     0.0471676  
C167     C      0.166560000000     0.566720000000     0.995100000000     0.00891631 
C168     C      0.205450000000     0.550910000000     0.978110000000    -0.0953896  
C169     C      0.025410000000     0.538290000000     0.684490000000     0.00828898 
C170     C      0.988500000000     0.472720000000     0.844250000000     0.0198234  
C171     C      0.009920000000     0.544490000000     0.841560000000     0.18553    
C172     C      0.016470000000     0.462400000000     0.810560000000    -0.112009   
C173     C      0.002730000000     0.533240000000     0.722770000000    -0.0976127  
C174     C      0.037000000000     0.534690000000     0.807030000000    -0.151453   
C175     C      0.017580000000     0.497700000000     0.745500000000     0.0141189  
C176     C      0.022450000000     0.498520000000     0.785120000000     0.0471923  
C177     C      0.042590000000     0.465800000000     0.684290000000     0.00853584 
C178     C      0.019440000000     0.459540000000     0.722320000000    -0.0985464  
C179     C      0.040710000000     0.532410000000     0.344950000000     0.00863486 
C180     C      0.960470000000     0.506580000000     0.185430000000     0.0199863  
C181     C      0.031360000000     0.483410000000     0.182500000000     0.187026   
C182     C      0.969170000000     0.528970000000     0.223440000000    -0.110803   
C183     C      0.045730000000     0.510460000000     0.306130000000    -0.0971086  
C184     C      0.041380000000     0.507790000000     0.218920000000    -0.154072   
C185     C      0.006840000000     0.508770000000     0.284210000000     0.0128337  
C186     C      0.005110000000     0.512440000000     0.244430000000     0.0491618  
C187     C      0.968880000000     0.513660000000     0.347600000000     0.00792047 
C188     C      0.972240000000     0.493130000000     0.307850000000    -0.09668    
C189     C      0.064050000000     0.668980000000     0.495610000000     0.00690011 
C190     C      0.989410000000     0.825330000000     0.524390000000     0.0192556  
C191     C      0.038200000000     0.830980000000     0.468210000000     0.183998   
C192     C      0.014340000000     0.792130000000     0.541790000000    -0.110976   
C193     C      0.050720000000     0.705830000000     0.472930000000    -0.0979347  
C194     C      0.061620000000     0.795960000000     0.485090000000    -0.151474   
C195     C      0.025090000000     0.731630000000     0.498940000000     0.0187565  
C196     C      0.034350000000     0.769750000000     0.508930000000     0.0458511  
C197     C      0.004270000000     0.674670000000     0.539620000000     0.00819084 
C198     C      0.989820000000     0.709590000000     0.515300000000    -0.0988611  
C199     C      0.967550000000     0.334240000000     0.482130000000     0.00650646 
C200     C      0.021750000000     0.173120000000     0.527980000000     0.0188615  
C201     C      0.977790000000     0.168620000000     0.467650000000     0.183972   
C202     C      0.999180000000     0.210060000000     0.540610000000    -0.111136   
C203     C      0.979050000000     0.294570000000     0.463360000000    -0.0981127  
C204     C      0.957030000000     0.207020000000     0.480260000000    -0.151681   
C205     C      0.998990000000     0.268220000000     0.493350000000     0.0191     
C206     C      0.984900000000     0.231950000000     0.504670000000     0.0460711  
C207     C      0.022070000000     0.325420000000     0.532440000000     0.00796928 
C208     C      0.034780000000     0.287710000000     0.511490000000    -0.0991543  
C209     C      0.679090000000     0.011160000000     0.473410000000     0.00875282 
C210     C      0.835090000000     0.972100000000     0.541790000000     0.0187284  
C211     C      0.830530000000     0.017960000000     0.482920000000     0.186613   
C212     C      0.797940000000     0.950140000000     0.528040000000    -0.111182   
C213     C      0.715200000000     0.025060000000     0.496050000000    -0.0987634  
C214     C      0.794990000000     0.994110000000     0.468670000000    -0.151736   
C215     C      0.735470000000     0.989490000000     0.513820000000     0.0185972  
C216     C      0.772720000000     0.977600000000     0.503500000000     0.0468159  
C217     C      0.670080000000     0.955490000000     0.522230000000     0.00714473 
C218     C      0.709110000000     0.967180000000     0.542210000000    -0.0997787  
C219     C      0.331530000000     0.008400000000     0.462790000000     0.00894457 
C220     C      0.174730000000     0.034550000000     0.538560000000     0.0188428  
C221     C      0.179750000000     0.988760000000     0.479870000000     0.186187   
C222     C      0.208560000000     0.059940000000     0.522360000000    -0.110869   
C223     C      0.296000000000     0.993480000000     0.485700000000    -0.0983861  
C224     C      0.211660000000     0.015710000000     0.462920000000    -0.151288   
C225     C      0.273780000000     0.028350000000     0.502760000000     0.017512   
C226     C      0.234530000000     0.035070000000     0.495880000000     0.0467573  
C227     C      0.337270000000     0.066700000000     0.508430000000     0.00767356 
C228     C      0.298930000000     0.054280000000     0.529200000000    -0.0993884  
C229     C      0.002560000000     0.837720000000     0.981030000000     0.00847624 
C230     C      0.966620000000     0.680230000000     0.054500000000     0.0182393  
C231     C      0.008130000000     0.684960000000     0.992510000000     0.187326   
C232     C      0.945280000000     0.718830000000     0.043170000000    -0.110994   
C233     C      0.016720000000     0.801020000000     0.002760000000    -0.0985509  
C234     C      0.983430000000     0.720410000000     0.979870000000    -0.152939   
C235     C      0.982040000000     0.781430000000     0.022980000000     0.0174292  
C236     C      0.970540000000     0.743290000000     0.015640000000     0.0481665  
C237     C      0.949560000000     0.847580000000     0.032200000000     0.00679535 
C238     C      0.961340000000     0.808400000000     0.051940000000    -0.0991563  
C239     C      0.991330000000     0.336860000000     0.989920000000     0.00867555 
C240     C      0.065550000000     0.178090000000     0.014630000000     0.0188538  
C241     C      0.004660000000     0.185050000000     0.972230000000     0.186549   
C242     C      0.055600000000     0.216960000000     0.035750000000    -0.110884   
C243     C      0.016820000000     0.305160000000     0.970850000000    -0.0982772  
C244     C      0.992910000000     0.221810000000     0.995390000000    -0.151646   
C245     C      0.037390000000     0.281810000000     0.002610000000     0.0164801  
C246     C      0.029450000000     0.242880000000     0.010370000000     0.04838    
C247     C      0.041190000000     0.342120000000     0.044980000000     0.00694191 
C248     C      0.064480000000     0.307300000000     0.027450000000    -0.0991314  
C249     C      0.679810000000     0.007970000000     0.024870000000     0.00878078 
C250     C      0.838900000000     0.053850000000     0.969820000000     0.0184227  
C251     C      0.831420000000     0.005430000000     0.026650000000     0.186462   
C252     C      0.801550000000     0.075620000000     0.983310000000    -0.110937   
C253     C      0.718750000000     0.997510000000     0.005160000000    -0.0997619  
C254     C      0.795390000000     0.028990000000     0.040140000000    -0.151643   
C255     C      0.738900000000     0.035010000000     0.991560000000     0.0198656  
C256     C      0.775020000000     0.047080000000     0.005050000000     0.0458656  
C257     C      0.673300000000     0.067290000000     0.980010000000     0.00785547 
C258     C      0.714200000000     0.058370000000     0.962610000000    -0.100587   
C259     C      0.337000000000     0.981100000000     0.952460000000     0.00618194 
C260     C      0.181430000000     0.009370000000     0.033460000000     0.0199328  
C261     C      0.172890000000     0.951560000000     0.987390000000     0.183874   
C262     C      0.216030000000     0.024260000000     0.009130000000    -0.111286   
C263     C      0.300840000000     0.957550000000     0.966890000000    -0.0973271  
C264     C      0.210220000000     0.964260000000     0.964760000000    -0.151167   
C265     C      0.276400000000     0.982160000000     0.995130000000     0.0156666  
C266     C      0.236960000000     0.989490000000     0.990290000000     0.0461219  
C267     C      0.332830000000     0.025040000000     0.012140000000     0.00814596 
C268     C      0.300310000000     0.998900000000     0.028640000000    -0.0983231  
C269     C      0.044810000000     0.998240000000     0.674440000000     0.00816185 
C270     C      0.975820000000     0.029350000000     0.834890000000     0.020777   
C271     C      0.046000000000     0.003270000000     0.835320000000     0.185459   
C272     C      0.965920000000     0.004010000000     0.799160000000    -0.112247   
C273     C      0.037840000000     0.018570000000     0.713840000000    -0.0973562  
C274     C      0.037550000000     0.980460000000     0.797480000000    -0.151412   
C275     C      0.002990000000     0.000910000000     0.735550000000     0.0128013  
C276     C      0.002910000000     0.997810000000     0.775240000000     0.0467466  
C277     C      0.974580000000     0.973210000000     0.674420000000     0.00971452 
C278     C      0.965620000000     0.996410000000     0.711780000000    -0.0987852  
C279     C      0.967750000000     0.002600000000     0.333370000000     0.00840988 
C280     C      0.039760000000     0.040080000000     0.174120000000     0.0200331  
C281     C      0.967970000000     0.019690000000     0.175040000000     0.185604   
C282     C      0.047980000000     0.015420000000     0.210840000000    -0.111456   
C283     C      0.975120000000     0.028570000000     0.297530000000    -0.0974387  
C284     C      0.975150000000     0.995810000000     0.212400000000    -0.151591   
C285     C      0.010710000000     0.014210000000     0.274650000000     0.0129003  
C286     C      0.010640000000     0.011160000000     0.234850000000     0.0476702  
C287     C      0.039370000000     0.982230000000     0.333880000000     0.00817601 
C288     C      0.047890000000     0.009030000000     0.298720000000    -0.0980771  
H1       H      0.530460000000     0.578850000000     0.722620000000     0.045271   
H2       H      0.477650000000     0.461320000000     0.817900000000     0.0383132  
H3       H      0.554600000000     0.465920000000     0.678820000000     0.0312628  
H4       H      0.500860000000     0.452740000000     0.724960000000     0.0464637  
H5       H      0.536080000000     0.454370000000     0.775810000000     0.0483514  
H6       H      0.496720000000     0.578070000000     0.777850000000     0.069851   
H7       H      0.538090000000     0.574890000000     0.650910000000     0.0415816  
H8       H      0.520320000000     0.449760000000     0.846590000000     0.0392347  
H9       H      0.468830000000     0.485160000000     0.699760000000     0.0589691  
H10      H      0.540100000000     0.564740000000     0.805140000000     0.0630801  
H11      H      0.511090000000     0.450470000000     0.653300000000     0.0418326  
H12      H      0.485390000000     0.563950000000     0.698670000000     0.0564754  
H13      H      0.562520000000     0.489150000000     0.804000000000     0.0561335  
H14      H      0.484090000000     0.571760000000     0.848330000000     0.00468411 
H15      H      0.571530000000     0.543670000000     0.677510000000     0.0331844  
H16      H      0.428300000000     0.538180000000     0.839480000000     0.154394   
H17      H      0.446170000000     0.525420000000     0.277870000000     0.0525192  
H18      H      0.527610000000     0.571640000000     0.177870000000     0.0401976  
H19      H      0.539410000000     0.455210000000     0.320230000000     0.0331478  
H20      H      0.572600000000     0.497780000000     0.274820000000     0.0447019  
H21      H      0.568710000000     0.532700000000     0.220070000000     0.0486844  
H22      H      0.446030000000     0.491590000000     0.226210000000     0.0684877  
H23      H      0.447100000000     0.514340000000     0.349520000000     0.0424905  
H24      H      0.561230000000     0.542510000000     0.149390000000     0.03984    
H25      H      0.557860000000     0.542160000000     0.300170000000     0.0540059  
H26      H      0.480330000000     0.463380000000     0.199310000000     0.064222   
H27      H      0.571560000000     0.488310000000     0.346170000000     0.0418306  
H28      H      0.479070000000     0.557660000000     0.302150000000     0.0590954  
H29      H      0.556680000000     0.487090000000     0.195430000000     0.0551012  
H30      H      0.441060000000     0.501070000000     0.154550000000     0.00530363 
H31      H      0.461830000000     0.471260000000     0.322790000000     0.0317884  
H32      H      0.437030000000     0.566660000000     0.157960000000     0.15094    
H33      H      0.438870000000     0.789340000000     0.437370000000     0.0470344  
H34      H      0.545110000000     0.697700000000     0.497080000000     0.0387676  
H35      H      0.488690000000     0.827780000000     0.541320000000     0.0326519  
H36      H      0.541940000000     0.782250000000     0.515340000000     0.0466195  
H37      H      0.508460000000     0.740350000000     0.546100000000     0.0481213  
H38      H      0.441600000000     0.727380000000     0.436500000000     0.0699019  
H39      H      0.443320000000     0.862900000000     0.442180000000     0.0430099  
H40      H      0.529610000000     0.671340000000     0.540000000000     0.0396764  
H41      H      0.543080000000     0.809590000000     0.471660000000     0.0578667  
H42      H      0.425580000000     0.705470000000     0.481180000000     0.0622333  
H43      H      0.534080000000     0.852430000000     0.529550000000     0.0422905  
H44      H      0.485700000000     0.808770000000     0.422650000000     0.0573091  
H45      H      0.467350000000     0.709040000000     0.541980000000     0.0559683  
H46      H      0.453420000000     0.654940000000     0.440940000000     0.00585971 
H47      H      0.428230000000     0.838100000000     0.485880000000     0.0334073  
H48      H      0.511840000000     0.660270000000     0.412400000000     0.152954   
H49      H      0.586160000000     0.229440000000     0.448880000000     0.0470594  
H50      H      0.482140000000     0.325090000000     0.504340000000     0.0380922  
H51      H      0.526130000000     0.192220000000     0.549000000000     0.0319207  
H52      H      0.479550000000     0.243080000000     0.521280000000     0.0465846  
H53      H      0.514620000000     0.281510000000     0.555120000000     0.0476548  
H54      H      0.589850000000     0.290930000000     0.450690000000     0.0689273  
H55      H      0.577500000000     0.156930000000     0.453060000000     0.042739   
H56      H      0.497000000000     0.351800000000     0.547240000000     0.0394238  
H57      H      0.478660000000     0.217370000000     0.476590000000     0.0579014  
H58      H      0.601940000000     0.313640000000     0.496040000000     0.0620319  
H59      H      0.480150000000     0.171640000000     0.532700000000     0.0419429  
H60      H      0.538960000000     0.213510000000     0.431540000000     0.0576671  
H61      H      0.556970000000     0.311400000000     0.553270000000     0.0551747  
H62      H      0.578380000000     0.363060000000     0.451630000000     0.00533997 
H63      H      0.589760000000     0.180200000000     0.498470000000     0.0329908  
H64      H      0.521520000000     0.357950000000     0.420010000000     0.153066   
H65      H      0.570720000000     0.730970000000     0.035970000000     0.0492075  
H66      H      0.508740000000     0.825690000000     0.939680000000     0.0390597  
H67      H      0.455150000000     0.697220000000     0.999000000000     0.032831   
H68      H      0.481160000000     0.737550000000     0.942450000000     0.0466095  
H69      H      0.455710000000     0.784670000000     0.971990000000     0.0482588  
H70      H      0.561740000000     0.789760000000     0.046890000000     0.0686934  
H71      H      0.554350000000     0.661200000000     0.044750000000     0.0431521  
H72      H      0.466760000000     0.854260000000     0.954600000000     0.0402088  
H73      H      0.523150000000     0.707460000000     0.940370000000     0.0567081  
H74      H      0.517400000000     0.814890000000     0.057360000000     0.0634057  
H75      H      0.464090000000     0.668050000000     0.956030000000     0.0423892  
H76      H      0.574240000000     0.705290000000     0.991120000000     0.0579477  
H77      H      0.459400000000     0.813820000000     0.014200000000     0.0558638  
H78      H      0.566350000000     0.860360000000     0.032790000000     0.0061137  
H79      H      0.513180000000     0.692180000000     0.056460000000     0.0334066  
H80      H      0.594130000000     0.852770000000     0.974270000000     0.152429   
H81      H      0.451270000000     0.290520000000     0.069000000000     0.0466127  
H82      H      0.491450000000     0.197760000000     0.955600000000     0.0385782  
H83      H      0.548080000000     0.325970000000     0.003260000000     0.0319241  
H84      H      0.511670000000     0.282140000000     0.955250000000     0.0466881  
H85      H      0.546910000000     0.239640000000     0.983320000000     0.0482551  
H86      H      0.447360000000     0.228720000000     0.065390000000     0.0695985  
H87      H      0.459920000000     0.363340000000     0.066050000000     0.0427972  
H88      H      0.536360000000     0.170880000000     0.963690000000     0.0398348  
H89      H      0.469150000000     0.311170000000     0.961530000000     0.0579491  
H90      H      0.493900000000     0.206020000000     0.074890000000     0.0619717  
H91      H      0.529710000000     0.351920000000     0.961210000000     0.0422006  
H92      H      0.430150000000     0.311970000000     0.025920000000     0.0572688  
H93      H      0.548770000000     0.208520000000     0.024430000000     0.0559803  
H94      H      0.448540000000     0.156300000000     0.053540000000     0.00543327 
H95      H      0.504780000000     0.335990000000     0.071320000000     0.0325616  
H96      H      0.412500000000     0.162020000000     0.999640000000     0.152591   
H97      H      0.526560000000     0.954760000000     0.718730000000     0.0530362  
H98      H      0.563700000000     0.043430000000     0.816220000000     0.0401567  
H99      H      0.448400000000     0.039770000000     0.672520000000     0.0331367  
H100     H      0.489330000000     0.078890000000     0.715060000000     0.0444727  
H101     H      0.523680000000     0.079650000000     0.770810000000     0.0485705  
H102     H      0.489540000000     0.954680000000     0.768540000000     0.0685607  
H103     H      0.514160000000     0.950440000000     0.647210000000     0.0421746  
H104     H      0.531000000000     0.075490000000     0.842710000000     0.0388031  
H105     H      0.534020000000     0.065620000000     0.689600000000     0.0536632  
H106     H      0.459150000000     0.988460000000     0.793800000000     0.0645954  
H107     H      0.478470000000     0.072670000000     0.644030000000     0.0414906  
H108     H      0.555340000000     0.988750000000     0.691810000000     0.05851    
H109     H      0.478210000000     0.066070000000     0.794740000000     0.0547018  
H110     H      0.498250000000     0.952580000000     0.840270000000     0.00566495 
H111     H      0.470530000000     0.963150000000     0.673980000000     0.0316432  
H112     H      0.563870000000     0.952470000000     0.838040000000     0.151079   
H113     H      0.573060000000     0.022660000000     0.270710000000     0.0452793  
H114     H      0.456530000000     0.971170000000     0.172720000000     0.0379195  
H115     H      0.458940000000     0.044000000000     0.313920000000     0.031321   
H116     H      0.448160000000     0.988720000000     0.268730000000     0.0465508  
H117     H      0.448280000000     0.025840000000     0.218940000000     0.0484589  
H118     H      0.572180000000     0.988340000000     0.215130000000     0.0699471  
H119     H      0.568480000000     0.032190000000     0.342180000000     0.0416016  
H120     H      0.444460000000     0.015690000000     0.147070000000     0.0389278  
H121     H      0.481760000000     0.958590000000     0.294690000000     0.0586719  
H122     H      0.559180000000     0.033580000000     0.190570000000     0.0630377  
H123     H      0.445410000000     0.000350000000     0.340340000000     0.0420274  
H124     H      0.559180000000     0.977800000000     0.295690000000     0.0560493  
H125     H      0.482440000000     0.055420000000     0.193060000000     0.0563625  
H126     H      0.566620000000     0.980550000000     0.143760000000     0.00467653 
H127     H      0.536260000000     0.063970000000     0.314710000000     0.0334103  
H128     H      0.532870000000     0.924240000000     0.148530000000     0.153659   
H129     H      0.734710000000     0.578450000000     0.554150000000     0.045711   
H130     H      0.827840000000     0.460820000000     0.518190000000     0.0389214  
H131     H      0.703220000000     0.523410000000     0.452290000000     0.0319296  
H132     H      0.741430000000     0.468540000000     0.485430000000     0.0461063  
H133     H      0.791960000000     0.493680000000     0.461800000000     0.0480405  
H134     H      0.793950000000     0.565010000000     0.569630000000     0.0701034  
H135     H      0.662200000000     0.579470000000     0.541740000000     0.0426986  
H136     H      0.858370000000     0.471320000000     0.476610000000     0.0400792  
H137     H      0.709980000000     0.472020000000     0.526070000000     0.0577517  
H138     H      0.820430000000     0.581130000000     0.527210000000     0.0620184  
H139     H      0.674280000000     0.480340000000     0.463210000000     0.0423014  
H140     H      0.709870000000     0.534930000000     0.571480000000     0.056313   
H141     H      0.823160000000     0.534830000000     0.466350000000     0.0565263  
H142     H      0.866760000000     0.553780000000     0.572370000000     0.00575938 
H143     H      0.692630000000     0.586830000000     0.499600000000     0.0326174  
H144     H      0.858430000000     0.495650000000     0.601320000000     0.152457   
H145     H      0.298970000000     0.440430000000     0.565830000000     0.0477666  
H146     H      0.199330000000     0.537840000000     0.506810000000     0.0386534  
H147     H      0.332630000000     0.495940000000     0.460240000000     0.0333221  
H148     H      0.283190000000     0.543530000000     0.488930000000     0.0467122  
H149     H      0.244690000000     0.507630000000     0.456400000000     0.0481507  
H150     H      0.238740000000     0.431170000000     0.560290000000     0.0691551  
H151     H      0.371310000000     0.448700000000     0.558340000000     0.0429551  
H152     H      0.173660000000     0.521240000000     0.463930000000     0.0393905  
H153     H      0.310680000000     0.545430000000     0.532440000000     0.0571355  
H154     H      0.217180000000     0.418500000000     0.514710000000     0.0619994  
H155     H      0.354280000000     0.541990000000     0.475080000000     0.0421477  
H156     H      0.315660000000     0.488550000000     0.578970000000     0.057479   
H157     H      0.217290000000     0.463640000000     0.458100000000     0.0553346  
H158     H      0.166090000000     0.438710000000     0.558580000000     0.00526278 
H159     H      0.346580000000     0.432800000000     0.514900000000     0.0337713  
H160     H      0.167890000000     0.494780000000     0.591790000000     0.153669   
H161     H      0.781940000000     0.445570000000     0.952940000000     0.0480368  
H162     H      0.682770000000     0.508010000000     0.046850000000     0.0382574  
H163     H      0.816740000000     0.553400000000     0.007480000000     0.0326728  
H164     H      0.767150000000     0.524490000000     0.054290000000     0.0465031  
H165     H      0.729750000000     0.558280000000     0.018380000000     0.0479224  
H166     H      0.722790000000     0.454340000000     0.941270000000     0.068772   
H167     H      0.853660000000     0.455270000000     0.957910000000     0.0433361  
H168     H      0.658390000000     0.552090000000     0.030540000000     0.0397636  
H169     H      0.794380000000     0.480390000000     0.056140000000     0.0567479  
H170     H      0.702190000000     0.500890000000     0.929280000000     0.0620944  
H171     H      0.838840000000     0.537550000000     0.052560000000     0.0418601  
H172     H      0.799970000000     0.433890000000     0.000360000000     0.0571462  
H173     H      0.703160000000     0.557620000000     0.974300000000     0.0553756  
H174     H      0.650380000000     0.456660000000     0.948270000000     0.00499472 
H175     H      0.827930000000     0.499380000000     0.944410000000     0.0337884  
H176     H      0.650860000000     0.423700000000     0.004290000000     0.152934   
H177     H      0.225260000000     0.494440000000     0.062500000000     0.0450662  
H178     H      0.323430000000     0.505370000000     0.932500000000     0.0403025  
H179     H      0.173400000000     0.592720000000     0.013860000000     0.0316182  
H180     H      0.222100000000     0.577540000000     0.968830000000     0.0443911  
H181     H      0.275490000000     0.552500000000     0.945130000000     0.0488937  
H182     H      0.275560000000     0.465960000000     0.036710000000     0.0710764  
H183     H      0.153700000000     0.499570000000     0.070100000000     0.0423537  
H184     H      0.349350000000     0.550220000000     0.942710000000     0.0392389  
H185     H      0.198750000000     0.533000000000     0.951680000000     0.05446    
H186     H      0.302140000000     0.509020000000     0.052850000000     0.06491    
H187     H      0.147700000000     0.577310000000     0.970640000000     0.0416846  
H188     H      0.198870000000     0.471960000000     0.022360000000     0.0579476  
H189     H      0.300170000000     0.573020000000     0.987100000000     0.054804   
H190     H      0.347210000000     0.459740000000     0.031330000000     0.00582478 
H191     H      0.179570000000     0.545710000000     0.070870000000     0.0310377  
H192     H      0.342560000000     0.430330000000     0.973230000000     0.151481   
H193     H      0.003510000000     0.561390000000     0.739190000000     0.0548791  
H194     H      0.958520000000     0.478130000000     0.832090000000     0.0398959  
H195     H      0.074200000000     0.470630000000     0.691670000000     0.0337503  
H196     H      0.034940000000     0.435730000000     0.738570000000     0.0451436  
H197     H      0.002850000000     0.437310000000     0.794590000000     0.0488087  
H198     H      0.041360000000     0.561180000000     0.788510000000     0.0681692  
H199     H      0.011270000000     0.562170000000     0.667110000000     0.0427152  
H200     H      0.986540000000     0.446590000000     0.863880000000     0.0395483  
H201     H      0.988990000000     0.449430000000     0.715530000000     0.0540233  
H202     H      0.066750000000     0.527630000000     0.818830000000     0.0645361  
H203     H      0.040580000000     0.438270000000     0.666630000000     0.041567   
H204     H      0.971150000000     0.527990000000     0.715640000000     0.0600051  
H205     H      0.045380000000     0.452520000000     0.822390000000     0.0554801  
H206     H      0.024960000000     0.567850000000     0.859070000000     0.00541747 
H207     H      0.055850000000     0.548230000000     0.691630000000     0.0320332  
H208     H      0.960050000000     0.571090000000     0.849780000000     0.151067   
H209     H      0.068670000000     0.526800000000     0.289470000000     0.0451401  
H210     H      0.947880000000     0.477270000000     0.193230000000     0.0381404  
H211     H      0.957880000000     0.544220000000     0.342630000000     0.0313131  
H212     H      0.943450000000     0.495240000000     0.292800000000     0.0460717  
H213     H      0.942080000000     0.529760000000     0.241430000000     0.0483671  
H214     H      0.065760000000     0.492120000000     0.234120000000     0.0698652  
H215     H      0.069070000000     0.530690000000     0.361230000000     0.0415203  
H216     H      0.937480000000     0.522890000000     0.168790000000     0.0387904  
H217     H      0.977380000000     0.461090000000     0.313000000000     0.0584674  
H218     H      0.052200000000     0.537500000000     0.210100000000     0.0638266  
H219     H      0.946350000000     0.498030000000     0.365460000000     0.0416368  
H220     H      0.056460000000     0.479910000000     0.311650000000     0.0562244  
H221     H      0.975670000000     0.560260000000     0.215880000000     0.0558483  
H222     H      0.058290000000     0.483700000000     0.163760000000     0.00497095 
H223     H      0.034690000000     0.564120000000     0.338710000000     0.0333206  
H224     H      0.022980000000     0.428410000000     0.169290000000     0.153728   
H225     H      0.077840000000     0.720200000000     0.462120000000     0.0472402  
H226     H      0.965180000000     0.812100000000     0.506760000000     0.0384112  
H227     H      0.020850000000     0.686090000000     0.565340000000     0.0324067  
H228     H      0.968760000000     0.727750000000     0.532220000000     0.0464483  
H229     H      0.996770000000     0.773790000000     0.562100000000     0.0480875  
H230     H      0.076490000000     0.781210000000     0.460340000000     0.0692006  
H231     H      0.079480000000     0.648850000000     0.474970000000     0.0429665  
H232     H      0.975700000000     0.842120000000     0.548800000000     0.0396101  
H233     H      0.972280000000     0.697920000000     0.490340000000     0.0573317  
H234     H      0.085280000000     0.807440000000     0.504550000000     0.0630891  
H235     H      0.978120000000     0.658340000000     0.550750000000     0.0422865  
H236     H      0.033300000000     0.696580000000     0.446940000000     0.0576628  
H237     H      0.037580000000     0.805640000000     0.560490000000     0.0558573  
H238     H      0.060300000000     0.851490000000     0.455130000000     0.00626654 
H239     H      0.086010000000     0.678300000000     0.517970000000     0.0328896  
H240     H      0.003620000000     0.840720000000     0.424170000000     0.151925   
H241     H      0.951810000000     0.282210000000     0.450580000000     0.0476228  
H242     H      0.049250000000     0.182300000000     0.512730000000     0.0384531  
H243     H      0.002830000000     0.317410000000     0.557580000000     0.0331078  
H244     H      0.052260000000     0.268660000000     0.531230000000     0.0466379  
H245     H      0.016830000000     0.227940000000     0.561260000000     0.0483058  
H246     H      0.945840000000     0.221450000000     0.453520000000     0.0695741  
H247     H      0.957570000000     0.354480000000     0.458490000000     0.0429759  
H248     H      0.030490000000     0.156600000000     0.554720000000     0.0397684  
H249     H      0.055530000000     0.295900000000     0.487620000000     0.0572157  
H250     H      0.930760000000     0.199470000000     0.498270000000     0.0627634  
H251     H      0.048920000000     0.339910000000     0.544420000000     0.0423309  
H252     H      0.999890000000     0.300050000000     0.438840000000     0.0576259  
H253     H      0.972980000000     0.200570000000     0.557810000000     0.0556431  
H254     H      0.954550000000     0.149480000000     0.454450000000     0.00594606 
H255     H      0.941830000000     0.329170000000     0.501720000000     0.0337297  
H256     H      0.013510000000     0.152240000000     0.426490000000     0.153392   
H257     H      0.734040000000     0.044050000000     0.477540000000     0.0566376  
H258     H      0.826220000000     0.994040000000     0.564380000000     0.0379655  
H259     H      0.676180000000     0.930620000000     0.501830000000     0.0326058  
H260     H      0.722070000000     0.939540000000     0.553610000000     0.0450477  
H261     H      0.783330000000     0.938570000000     0.554540000000     0.0480779  
H262     H      0.776970000000     0.011370000000     0.447800000000     0.0663566  
H263     H      0.664460000000     0.037540000000     0.460570000000     0.0426911  
H264     H      0.854860000000     0.950430000000     0.556380000000     0.039949   
H265     H      0.702660000000     0.986530000000     0.567700000000     0.0545575  
H266     H      0.806140000000     0.968780000000     0.451100000000     0.0635706  
H267     H      0.649540000000     0.944170000000     0.544980000000     0.0422029  
H268     H      0.705190000000     0.044690000000     0.520200000000     0.0596826  
H269     H      0.806760000000     0.924280000000     0.509980000000     0.0547882  
H270     H      0.847210000000     0.027270000000     0.456360000000     0.00460217 
H271     H      0.688820000000     0.991920000000     0.448830000000     0.0326276  
H272     H      0.840600000000     0.069010000000     0.506410000000     0.153396   
H273     H      0.278390000000     0.973220000000     0.467350000000     0.0560169  
H274     H      0.187270000000     0.013510000000     0.560260000000     0.038253   
H275     H      0.329780000000     0.089410000000     0.486090000000     0.032107   
H276     H      0.284230000000     0.082150000000     0.537830000000     0.0448005  
H277     H      0.224000000000     0.072560000000     0.547970000000     0.0481711  
H278     H      0.229770000000     0.999910000000     0.441030000000     0.0659026  
H279     H      0.347510000000     0.982470000000     0.450660000000     0.0426472  
H280     H      0.154080000000     0.054180000000     0.554700000000     0.0401634  
H281     H      0.306230000000     0.037580000000     0.556240000000     0.0546762  
H282     H      0.196850000000     0.039480000000     0.445880000000     0.0635951  
H283     H      0.356970000000     0.081040000000     0.530210000000     0.0421159  
H284     H      0.306770000000     0.974930000000     0.510350000000     0.0607808  
H285     H      0.196130000000     0.084940000000     0.505230000000     0.0548999  
H286     H      0.162500000000     0.977080000000     0.454630000000     0.00488544 
H287     H      0.320950000000     0.026490000000     0.437720000000     0.0319452  
H288     H      0.176410000000     0.937760000000     0.505240000000     0.152434   
H289     H      0.033860000000     0.781770000000     0.982940000000     0.0567672  
H290     H      0.989880000000     0.687520000000     0.076280000000     0.0383829  
H291     H      0.924020000000     0.841700000000     0.012600000000     0.0326761  
H292     H      0.933820000000     0.795720000000     0.064010000000     0.0450444  
H293     H      0.938030000000     0.734030000000     0.070890000000     0.0483788  
H294     H      0.998900000000     0.737940000000     0.957290000000     0.0668703  
H295     H      0.028480000000     0.851910000000     0.966910000000     0.0428792  
H296     H      0.945070000000     0.660560000000     0.069400000000     0.0393106  
H297     H      0.981590000000     0.814560000000     0.076780000000     0.0546362  
H298     H      0.956530000000     0.709230000000     0.964850000000     0.0643007  
H299     H      0.939190000000     0.868300000000     0.055230000000     0.0426684  
H300     H      0.038150000000     0.810400000000     0.025590000000     0.0602469  
H301     H      0.917020000000     0.711550000000     0.028310000000     0.0536806  
H302     H      0.015460000000     0.668370000000     0.965280000000     0.0053482  
H303     H      0.981840000000     0.828540000000     0.957470000000     0.0327324  
H304     H      0.060790000000     0.674950000000     0.012050000000     0.154211   
H305     H      0.999570000000     0.287390000000     0.949780000000     0.0543027  
H306     H      0.087170000000     0.184720000000     0.991040000000     0.0389845  
H307     H      0.021870000000     0.330430000000     0.068600000000     0.0328817  
H308     H      0.078290000000     0.291600000000     0.052280000000     0.0454931  
H309     H      0.084290000000     0.230700000000     0.043020000000     0.0489907  
H310     H      0.972320000000     0.240120000000     0.978080000000     0.0670373  
H311     H      0.976490000000     0.353950000000     0.966370000000     0.0425821  
H312     H      0.080550000000     0.158120000000     0.035730000000     0.0400918  
H313     H      0.088650000000     0.318950000000     0.008750000000     0.0549545  
H314     H      0.975380000000     0.212220000000     0.021210000000     0.0643925  
H315     H      0.062440000000     0.362790000000     0.058930000000     0.0426287  
H316     H      0.039670000000     0.320030000000     0.952710000000     0.0584951  
H317     H      0.039950000000     0.210370000000     0.063570000000     0.0554427  
H318     H      0.976750000000     0.169890000000     0.963710000000     0.00539495 
H319     H      0.968010000000     0.322340000000     0.007760000000     0.0327094  
H320     H      0.027190000000     0.172570000000     0.921720000000     0.153125   
H321     H      0.736620000000     0.978380000000     0.024490000000     0.0582731  
H322     H      0.830780000000     0.033550000000     0.945520000000     0.0385382  
H323     H      0.676750000000     0.090520000000     0.002790000000     0.0322761  
H324     H      0.726980000000     0.087230000000     0.954400000000     0.0452076  
H325     H      0.788230000000     0.089180000000     0.957070000000     0.04799    
H326     H      0.776070000000     0.011050000000     0.059270000000     0.0664958  
H327     H      0.665100000000     0.980030000000     0.033770000000     0.0430625  
H328     H      0.859620000000     0.076110000000     0.957570000000     0.0400864  
H329     H      0.710680000000     0.040740000000     0.935400000000     0.055031   
H330     H      0.805830000000     0.053420000000     0.059310000000     0.0631528  
H331     H      0.654480000000     0.079910000000     0.956490000000     0.0421083  
H332     H      0.712320000000     0.979000000000     0.979040000000     0.0607559  
H333     H      0.810010000000     0.100140000000     0.003270000000     0.0539145  
H334     H      0.847030000000     0.995480000000     0.053630000000     0.00458414 
H335     H      0.686070000000     0.025170000000     0.051910000000     0.0325396  
H336     H      0.842060000000     0.954530000000     0.003010000000     0.154018   
H337     H      0.284420000000     0.948440000000     0.940390000000     0.0459296  
H338     H      0.193020000000     0.990780000000     0.057720000000     0.0387538  
H339     H      0.319140000000     0.050210000000     0.996180000000     0.0323248  
H340     H      0.283190000000     0.014840000000     0.051190000000     0.0465725  
H341     H      0.234860000000     0.043980000000     0.026870000000     0.0486332  
H342     H      0.224530000000     0.936770000000     0.954340000000     0.0703733  
H343     H      0.356940000000     0.960610000000     0.936490000000     0.0424555  
H344     H      0.166320000000     0.035210000000     0.046780000000     0.0398094  
H345     H      0.314270000000     0.973870000000     0.044560000000     0.0577628  
H346     H      0.201480000000     0.981750000000     0.938630000000     0.0633178  
H347     H      0.349920000000     0.037490000000     0.036990000000     0.0426494  
H348     H      0.310960000000     0.930340000000     0.982110000000     0.0558028  
H349     H      0.204270000000     0.043400000000     0.985380000000     0.0574128  
H350     H      0.152230000000     0.938700000000     0.965450000000     0.006378   
H351     H      0.326610000000     0.003570000000     0.931060000000     0.0329614  
H352     H      0.158130000000     0.910300000000     0.023810000000     0.151801   
H353     H      0.065670000000     0.018140000000     0.730830000000     0.0535224  
H354     H      0.984010000000     0.059570000000     0.824960000000     0.0407092  
H355     H      0.982760000000     0.942390000000     0.682390000000     0.0337563  
H356     H      0.942600000000     0.979690000000     0.727990000000     0.0448668  
H357     H      0.942660000000     0.019860000000     0.782480000000     0.0489014  
H358     H      0.064920000000     0.978180000000     0.779880000000     0.0690823  
H359     H      0.066230000000     0.015950000000     0.657130000000     0.041644   
H360     H      0.948800000000     0.031880000000     0.853230000000     0.0382507  
H361     H      0.953760000000     0.026090000000     0.704280000000     0.0539633  
H362     H      0.029620000000     0.949590000000     0.805420000000     0.0642247  
H363     H      0.947240000000     0.972010000000     0.656440000000     0.0400091  
H364     H      0.031080000000     0.050220000000     0.708260000000     0.0583844  
H365     H      0.954020000000     0.974920000000     0.808640000000     0.0551813  
H366     H      0.066530000000     0.984850000000     0.853150000000     0.00425482 
H367     H      0.058770000000     0.969060000000     0.680180000000     0.0315234  
H368     H      0.075670000000     0.049730000000     0.850480000000     0.150384   
H369     H      0.947680000000     0.030840000000     0.280140000000     0.053209   
H370     H      0.033810000000     0.071120000000     0.183080000000     0.0402588  
H371     H      0.033500000000     0.951770000000     0.323070000000     0.0335869  
H372     H      0.072030000000     0.994760000000     0.281900000000     0.0446908  
H373     H      0.071670000000     0.030950000000     0.227210000000     0.0487932  
H374     H      0.947570000000     0.994440000000     0.229690000000     0.0686372  
H375     H      0.944050000000     0.016190000000     0.351400000000     0.0422651  
H376     H      0.066860000000     0.040130000000     0.155780000000     0.0391377  
H377     H      0.058330000000     0.038390000000     0.309010000000     0.0537316  
H378     H      0.981600000000     0.964750000000     0.203900000000     0.0647372  
H379     H      0.066300000000     0.981110000000     0.352440000000     0.0416728  
H380     H      0.981530000000     0.059090000000     0.307790000000     0.0587717  
H381     H      0.058900000000     0.985640000000     0.202370000000     0.0549991  
H382     H      0.945130000000     0.003600000000     0.157800000000     0.00535013 
H383     H      0.956660000000     0.973450000000     0.323100000000     0.0314407  
H384     H      0.943330000000     0.069270000000     0.160820000000     0.150408   
N1       N      0.498610000000     0.509670000000     0.851220000000    -0.185225   
N2       N      0.526480000000     0.512260000000     0.648110000000    -0.164553   
N3       N      0.500060000000     0.524310000000     0.147930000000    -0.185135   
N4       N      0.509100000000     0.499530000000     0.351850000000    -0.164837   
N5       N      0.496690000000     0.659140000000     0.487110000000    -0.183781   
N6       N      0.485630000000     0.862080000000     0.489420000000    -0.16416    
N7       N      0.532460000000     0.361380000000     0.495440000000    -0.184394   
N8       N      0.530920000000     0.159660000000     0.496180000000    -0.164837   
N9       N      0.519560000000     0.861320000000     0.989680000000    -0.184687   
N10      N      0.505890000000     0.660750000000     0.003360000000    -0.164921   
N11      N      0.489000000000     0.159500000000     0.004810000000    -0.184396   
N12      N      0.498230000000     0.361860000000     0.015450000000    -0.16463    
N13      N      0.517670000000     0.013220000000     0.845490000000    -0.184857   
N14      N      0.494220000000     0.010870000000     0.641710000000    -0.164539   
N15      N      0.504690000000     0.995380000000     0.141480000000    -0.185757   
N16      N      0.506390000000     0.018490000000     0.345140000000    -0.164733   
N17      N      0.866580000000     0.509360000000     0.527040000000    -0.184328   
N18      N      0.664150000000     0.531350000000     0.500140000000    -0.164361   
N19      N      0.165720000000     0.485670000000     0.515860000000    -0.183864   
N20      N      0.367260000000     0.491660000000     0.511790000000    -0.163972   
N21      N      0.649980000000     0.500180000000     0.994470000000    -0.184172   
N22      N      0.850650000000     0.500990000000     0.002070000000    -0.164381   
N23      N      0.352280000000     0.505120000000     0.987200000000    -0.18569    
N24      N      0.146820000000     0.536710000000     0.019140000000    -0.164922   
N25      N      0.001840000000     0.508630000000     0.865050000000    -0.185348   
N26      N      0.027800000000     0.500600000000     0.662870000000    -0.164922   
N27      N      0.996690000000     0.500320000000     0.162240000000    -0.185555   
N28      N      0.007480000000     0.515960000000     0.367460000000    -0.164671   
N29      N      0.014060000000     0.850530000000     0.498830000000    -0.184823   
N30      N      0.030690000000     0.649550000000     0.515850000000    -0.164936   
N31      N      0.997640000000     0.148800000000     0.501070000000    -0.183647   
N32      N      0.999890000000     0.351630000000     0.505650000000    -0.164097   
N33      N      0.854940000000     0.993440000000     0.509430000000    -0.185508   
N34      N      0.652720000000     0.988380000000     0.499460000000    -0.164946   
N35      N      0.154850000000     0.011500000000     0.507430000000    -0.185743   
N36      N      0.356460000000     0.033110000000     0.488400000000    -0.165224   
N37      N      0.985690000000     0.660460000000     0.020750000000    -0.184683   
N38      N      0.981880000000     0.864470000000     0.008320000000    -0.164217   
N39      N      0.030330000000     0.159730000000     0.996640000000    -0.18536    
N40      N      0.015940000000     0.361960000000     0.015570000000    -0.165054   
N41      N      0.857150000000     0.030200000000     0.001560000000    -0.185351   
N42      N      0.655140000000     0.032130000000     0.998410000000    -0.165007   
N43      N      0.155080000000     0.985350000000     0.008600000000    -0.185082   
N44      N      0.357400000000     0.001910000000     0.984730000000    -0.164541   
N45      N      0.009140000000     0.012090000000     0.856780000000    -0.18546    
N46      N      0.007580000000     0.991560000000     0.653060000000    -0.165513   
N47      N      0.005130000000     0.024660000000     0.152860000000    -0.185216   
N48      N      0.004510000000     0.996300000000     0.355680000000    -0.165184   
O1       O      0.006770000000     0.011990000000     0.005020000000    -0.367785   
O2       O      0.912720000000     0.002110000000     0.027600000000    -0.309342   
O3       O      0.996240000000     0.104090000000     0.979240000000    -0.308668   
O4       O      0.033790000000     0.035900000000     0.093430000000    -0.306335   
O5       O      0.919160000000     0.046400000000     0.980630000000    -0.308157   
O6       O      0.978790000000     0.000590000000     0.096010000000    -0.307327   
O7       O      0.045230000000     0.098830000000     0.021790000000    -0.306516   
O8       O      0.093200000000     0.971700000000     0.985370000000    -0.307987   
O9       O      0.985220000000     0.034200000000     0.915000000000    -0.307953   
O10      O      0.100730000000     0.020660000000     0.027440000000    -0.3073     
O11      O      0.030590000000     0.987030000000     0.915210000000    -0.306649   
O12      O      0.013340000000     0.918720000000     0.983160000000    -0.303291   
O13      O      0.971130000000     0.926820000000     0.032110000000    -0.303879   
O14      O      0.005060000000     0.999610000000     0.504610000000    -0.368164   
O15      O      0.093630000000     0.029700000000     0.528970000000    -0.307346   
O16      O      0.034240000000     0.911910000000     0.479320000000    -0.309085   
O17      O      0.983020000000     0.972950000000     0.593890000000    -0.30715    
O18      O      0.098300000000     0.984110000000     0.482920000000    -0.309532   
O19      O      0.028660000000     0.019740000000     0.595980000000    -0.304171   
O20      O      0.987570000000     0.907130000000     0.524440000000    -0.306461   
O21      O      0.912170000000     0.018080000000     0.483450000000    -0.30848    
O22      O      0.032550000000     0.981350000000     0.414520000000    -0.3068     
O23      O      0.915690000000     0.971560000000     0.528700000000    -0.308221   
O24      O      0.977390000000     0.016290000000     0.413740000000    -0.304704   
O25      O      0.978860000000     0.087850000000     0.478750000000    -0.307332   
O26      O      0.020110000000     0.091470000000     0.529060000000    -0.303911   
O27      O      0.999350000000     0.511410000000     0.013960000000    -0.368135   
O28      O      0.017920000000     0.538750000000     0.922960000000    -0.307446   
O29      O      0.986170000000     0.418090000000     0.993070000000    -0.307159   
O30      O      0.091900000000     0.502580000000     0.037830000000    -0.306845   
O31      O      0.984780000000     0.482470000000     0.924160000000    -0.308647   
O32      O      0.086270000000     0.547780000000     0.991350000000    -0.304011   
O33      O      0.034700000000     0.423680000000     0.035950000000    -0.305578   
O34      O      0.969070000000     0.523310000000     0.105220000000    -0.303684   
O35      O      0.912930000000     0.480850000000     0.985780000000    -0.305068   
O36      O      0.025000000000     0.489690000000     0.102730000000    -0.31094    
O37      O      0.905700000000     0.525940000000     0.032200000000    -0.303546   
O38      O      0.968860000000     0.598660000000     0.043140000000    -0.302848   
O39      O      0.009630000000     0.604110000000     0.992750000000    -0.30892    
O40      O      0.016040000000     0.500540000000     0.515060000000    -0.367906   
O41      O      0.040190000000     0.523970000000     0.425330000000    -0.305767   
O42      O      0.983880000000     0.414340000000     0.485800000000    -0.30332    
O43      O      0.104290000000     0.467050000000     0.537140000000    -0.307245   
O44      O      0.983730000000     0.491040000000     0.425100000000    -0.30456    
O45      O      0.109120000000     0.513150000000     0.491530000000    -0.306634   
O46      O      0.028930000000     0.406510000000     0.532120000000    -0.304993   
O47      O      0.005030000000     0.527820000000     0.605950000000    -0.304583   
O48      O      0.922740000000     0.486700000000     0.497720000000    -0.307684   
O49      O      0.036750000000     0.470620000000     0.603670000000    -0.305308   
O50      O      0.928370000000     0.529070000000     0.546660000000    -0.305778   
O51      O      0.000590000000     0.593040000000     0.537150000000    -0.30556    
O52      O      0.049570000000     0.588290000000     0.494570000000    -0.304798   
O53      O      0.506690000000     0.010800000000     0.993620000000    -0.367897   
O54      O      0.418770000000     0.983550000000     0.962860000000    -0.30323    
O55      O      0.477760000000     0.019930000000     0.085010000000    -0.305761   
O56      O      0.540070000000     0.921920000000     0.011380000000    -0.308944   
O57      O      0.414000000000     0.023380000000     0.014000000000    -0.307092   
O58      O      0.490340000000     0.918790000000     0.969560000000    -0.306591   
O59      O      0.533160000000     0.985410000000     0.081790000000    -0.309503   
O60      O      0.593890000000     0.048260000000     0.974930000000    -0.304905   
O61      O      0.474050000000     0.096560000000     0.024900000000    -0.306963   
O62      O      0.599730000000     0.997790000000     0.015620000000    -0.307123   
O63      O      0.517250000000     0.104970000000     0.977060000000    -0.307498   
O64      O      0.528200000000     0.041760000000     0.905240000000    -0.305221   
O65      O      0.494530000000     0.985720000000     0.902160000000    -0.307257   
O66      O      0.504660000000     0.011390000000     0.493470000000    -0.366832   
O67      O      0.417530000000     0.049320000000     0.512240000000    -0.304752   
O68      O      0.478760000000     0.997010000000     0.402370000000    -0.304394   
O69      O      0.544290000000     0.097610000000     0.472870000000    -0.305026   
O70      O      0.412290000000     0.000570000000     0.469440000000    -0.306593   
O71      O      0.495800000000     0.105330000000     0.515420000000    -0.306469   
O72      O      0.534610000000     0.030940000000     0.404550000000    -0.305363   
O73      O      0.590160000000     0.975020000000     0.521440000000    -0.303698   
O74      O      0.470590000000     0.924080000000     0.466520000000    -0.302536   
O75      O      0.598440000000     0.019320000000     0.474530000000    -0.307054   
O76      O      0.513920000000     0.917880000000     0.514560000000    -0.30558    
O77      O      0.516340000000     0.983130000000     0.584620000000    -0.303238   
O78      O      0.482320000000     0.039000000000     0.582140000000    -0.305303   
O79      O      0.500730000000     0.510820000000     0.999790000000    -0.369303   
O80      O      0.411540000000     0.533710000000     0.971720000000    -0.30582    
O81      O      0.478140000000     0.423710000000     0.034130000000    -0.304062   
O82      O      0.516430000000     0.481280000000     0.909500000000    -0.304956   
O83      O      0.409570000000     0.488360000000     0.018370000000    -0.308669   
O84      O      0.483290000000     0.537690000000     0.910030000000    -0.30902    
O85      O      0.517050000000     0.417560000000     0.982450000000    -0.305366   
O86      O      0.593440000000     0.528290000000     0.018020000000    -0.307816   
O87      O      0.472000000000     0.501320000000     0.091280000000    -0.307042   
O88      O      0.588580000000     0.480560000000     0.973990000000    -0.307281   
O89      O      0.528830000000     0.533380000000     0.088220000000    -0.307493   
O90      O      0.529100000000     0.600050000000     0.021620000000    -0.306381   
O91      O      0.479680000000     0.603230000000     0.979460000000    -0.305418   
O92      O      0.515520000000     0.510530000000     0.499910000000    -0.367476   
O93      O      0.421220000000     0.520910000000     0.483830000000    -0.304426   
O94      O      0.505520000000     0.417120000000     0.522300000000    -0.30689    
O95      O      0.541720000000     0.491650000000     0.409800000000    -0.305796   
O96      O      0.430460000000     0.476320000000     0.530370000000    -0.302863   
O97      O      0.482490000000     0.519250000000     0.410240000000    -0.304227   
O98      O      0.549560000000     0.423530000000     0.474990000000    -0.308303   
O99      O      0.602070000000     0.548520000000     0.520730000000    -0.303149   
O100     O      0.505680000000     0.483260000000     0.591260000000    -0.304439   
O101     O      0.608790000000     0.499660000000     0.478210000000    -0.305561   
O102     O      0.535190000000     0.541620000000     0.588500000000    -0.304686   
O103     O      0.524250000000     0.605200000000     0.516780000000    -0.306219   
O104     O      0.480950000000     0.595720000000     0.469200000000    -0.306393   
O105     O      0.445690000000     0.537680000000     0.816120000000    -0.289641   
O106     O      0.447870000000     0.554580000000     0.182150000000    -0.290071   
O107     O      0.502710000000     0.685710000000     0.423720000000    -0.288392   
O108     O      0.529430000000     0.332750000000     0.432660000000    -0.28922    
O109     O      0.580630000000     0.828510000000     0.983610000000    -0.288768   
O110     O      0.425340000000     0.187260000000     0.007230000000    -0.289009   
O111     O      0.551630000000     0.961900000000     0.813350000000    -0.290064   
O112     O      0.532310000000     0.939980000000     0.173030000000    -0.289723   
O113     O      0.834240000000     0.504970000000     0.587790000000    -0.289169   
O114     O      0.193510000000     0.488860000000     0.578970000000    -0.288569   
O115     O      0.676780000000     0.436030000000     0.998430000000    -0.289005   
O116     O      0.318240000000     0.444880000000     0.980640000000    -0.289766   
O117     O      0.974290000000     0.559720000000     0.827040000000    -0.290823   
O118     O      0.023240000000     0.444310000000     0.193690000000    -0.289878   
O119     O      0.013350000000     0.817060000000     0.438380000000    -0.289288   
O120     O      0.005920000000     0.177670000000     0.438860000000    -0.288852   
O121     O      0.817230000000     0.051700000000     0.502840000000    -0.2914     
O122     O      0.197690000000     0.957080000000     0.499540000000    -0.291229   
O123     O      0.043200000000     0.698300000000     0.009910000000    -0.291095   
O124     O      0.024920000000     0.196570000000     0.938270000000    -0.290133   
O125     O      0.818790000000     0.972150000000     0.005570000000    -0.291658   
O126     O      0.183240000000     0.922010000000     0.014340000000    -0.289266   
O127     O      0.064970000000     0.038840000000     0.825680000000    -0.290452   
O128     O      0.953040000000     0.056960000000     0.185360000000    -0.290289   
Zn1      Zn     0.968740000000     0.986020000000     0.039540000000     0.448583   
Zn2      Zn     0.977550000000     0.048150000000     0.971390000000     0.453002   
Zn3      Zn     0.045600000000     0.040970000000     0.035910000000     0.450663   
Zn4      Zn     0.035070000000     0.973420000000     0.972880000000     0.447931   
Zn5      Zn     0.035420000000     0.034440000000     0.538960000000     0.449068   
Zn6      Zn     0.041700000000     0.970350000000     0.471500000000     0.451856   
Zn7      Zn     0.973760000000     0.963750000000     0.536730000000     0.452611   
Zn8      Zn     0.969300000000     0.029500000000     0.470940000000     0.448389   
Zn9      Zn     0.027380000000     0.549030000000     0.980620000000     0.449301   
Zn10     Zn     0.971650000000     0.474090000000     0.980630000000     0.453936   
Zn11     Zn     0.036930000000     0.482540000000     0.046030000000     0.453419   
Zn12     Zn     0.961750000000     0.539050000000     0.048110000000     0.444993   
Zn13     Zn     0.052970000000     0.530060000000     0.482530000000     0.451278   
Zn14     Zn     0.978040000000     0.473790000000     0.481480000000     0.450057   
Zn15     Zn     0.045360000000     0.461950000000     0.545980000000     0.449413   
Zn16     Zn     0.987880000000     0.536520000000     0.550080000000     0.449164   
Zn17     Zn     0.478050000000     0.975800000000     0.958080000000     0.44877    
Zn18     Zn     0.469510000000     0.036910000000     0.028810000000     0.449528   
Zn19     Zn     0.544050000000     0.979910000000     0.024280000000     0.452164   
Zn20     Zn     0.535390000000     0.050330000000     0.963330000000     0.450284   
Zn21     Zn     0.475860000000     0.050210000000     0.524690000000     0.450592   
Zn22     Zn     0.467910000000     0.983600000000     0.458960000000     0.449417   
Zn23     Zn     0.544230000000     0.038880000000     0.462160000000     0.451767   
Zn24     Zn     0.530660000000     0.973200000000     0.527850000000     0.44829    
Zn25     Zn     0.469730000000     0.545920000000     0.966660000000     0.450759   
Zn26     Zn     0.466030000000     0.482220000000     0.035360000000     0.449551   
Zn27     Zn     0.529550000000     0.473550000000     0.966910000000     0.448611   
Zn28     Zn     0.537330000000     0.541920000000     0.030720000000     0.453578   
Zn29     Zn     0.476100000000     0.535980000000     0.466710000000     0.448303   
Zn30     Zn     0.489990000000     0.472960000000     0.535150000000     0.449555   
Zn31     Zn     0.553140000000     0.482520000000     0.466870000000     0.450819   
Zn32     Zn     0.543070000000     0.550560000000     0.530660000000     0.449125   


