data_structure

_audit_creation_method RASPA-1.0
_audit_creation_date 2023-5-19
_audit_author_name 'Poobodin Mano'

_cell_length_a    34.2108
_cell_length_b    34.1026
_cell_length_c    33.9788
_cell_angle_alpha 90
_cell_angle_beta  90
_cell_angle_gamma 90
_cell_volume      39642.3

_symmetry_cell_setting          triclinic
_symmetry_space_group_name_Hall 'P 1'
_symmetry_space_group_name_H-M  'P 1'
_symmetry_Int_Tables_number     1

_symmetry_equiv_pos_as_xyz 'x,y,z'

loop_
_atom_site_label
_atom_site_type_symbol
_atom_site_fract_x
_atom_site_fract_y
_atom_site_fract_z
_atom_site_charge
C1       C      0.896110000000     0.013930000000     0.974880000000     0.362071   
C2       C      0.996330000000     0.010660000000     0.099120000000     0.363042   
C3       C      0.991620000000     0.899770000000     0.993600000000     0.362744   
C4       C      0.110820000000     0.998640000000     0.000350000000     0.362716   
C5       C      0.006960000000     0.116040000000     0.995620000000     0.364824   
C6       C      0.021170000000     0.008160000000     0.883370000000     0.362353   
C7       C      0.888970000000     0.985200000000     0.506150000000     0.362589   
C8       C      0.994090000000     0.001080000000     0.384900000000     0.361686   
C9       C      0.979870000000     0.104880000000     0.486310000000     0.362467   
C10      C      0.103290000000     0.006960000000     0.496160000000     0.360924   
C11      C      0.002830000000     0.890240000000     0.482290000000     0.362827   
C12      C      0.004550000000     0.999390000000     0.601470000000     0.36165    
C13      C      0.009430000000     0.400950000000     0.019370000000     0.366417   
C14      C      0.908240000000     0.515670000000     0.018960000000     0.363333   
C15      C      0.028310000000     0.517160000000     0.116550000000     0.362753   
C16      C      0.019310000000     0.618210000000     0.999990000000     0.364053   
C17      C      0.008890000000     0.496600000000     0.900410000000     0.360823   
C18      C      0.123370000000     0.505560000000     0.997470000000     0.363012   
C19      C      0.994270000000     0.386620000000     0.514780000000     0.363676   
C20      C      0.983130000000     0.486570000000     0.395220000000     0.362096   
C21      C      0.878170000000     0.490880000000     0.501020000000     0.363418   
C22      C      0.981460000000     0.604790000000     0.501080000000     0.36334    
C23      C      0.094180000000     0.501730000000     0.498940000000     0.363037   
C24      C      0.983370000000     0.502650000000     0.612360000000     0.359497   
C25      C      0.393980000000     0.992290000000     0.008040000000     0.363593   
C26      C      0.500220000000     0.004230000000     0.117120000000     0.359573   
C27      C      0.513630000000     0.890110000000     0.021280000000     0.363878   
C28      C      0.610530000000     0.000070000000     0.998100000000     0.36111    
C29      C      0.504560000000     0.105840000000     0.006230000000     0.360738   
C30      C      0.490280000000     0.990590000000     0.902550000000     0.362333   
C31      C      0.510170000000     0.113500000000     0.522600000000     0.364773   
C32      C      0.385950000000     0.014630000000     0.515350000000     0.360717   
C33      C      0.489720000000     0.016280000000     0.404300000000     0.361827   
C34      C      0.488330000000     0.898260000000     0.505660000000     0.362613   
C35      C      0.489300000000     0.999170000000     0.621300000000     0.365051   
C36      C      0.602300000000     0.996390000000     0.512950000000     0.362745   
C37      C      0.409970000000     0.502100000000     0.002490000000     0.364697   
C38      C      0.519880000000     0.507270000000     0.113020000000     0.361412   
C39      C      0.517680000000     0.391620000000     0.014030000000     0.362108   
C40      C      0.627390000000     0.505430000000     0.005770000000     0.364215   
C41      C      0.515470000000     0.610290000000     0.998720000000     0.365744   
C42      C      0.523030000000     0.490700000000     0.897130000000     0.360179   
C43      C      0.379290000000     0.507610000000     0.509200000000     0.362678   
C44      C      0.482470000000     0.395280000000     0.507250000000     0.365518   
C45      C      0.489370000000     0.497510000000     0.399380000000     0.361163   
C46      C      0.594840000000     0.497330000000     0.518020000000     0.36417    
C47      C      0.481270000000     0.513490000000     0.616020000000     0.361558   
C48      C      0.496070000000     0.611750000000     0.493080000000     0.363647   
C49      C      0.449580000000     0.495380000000     0.679210000000     0.00998679 
C50      C      0.554610000000     0.507420000000     0.833500000000     0.00999053 
C51      C      0.506420000000     0.453260000000     0.836690000000     0.00988342 
C52      C      0.534710000000     0.525890000000     0.797700000000    -0.0989988  
C53      C      0.469420000000     0.477280000000     0.715270000000    -0.0989202  
C54      C      0.484190000000     0.468480000000     0.800690000000    -0.0989194  
C55      C      0.496810000000     0.505210000000     0.737220000000     0.0178664  
C56      C      0.506930000000     0.498230000000     0.775930000000     0.0178932  
C57      C      0.496570000000     0.550640000000     0.676970000000     0.0100702  
C58      C      0.519220000000     0.535340000000     0.712630000000    -0.0989913  
C59      C      0.456890000000     0.508970000000     0.335250000000     0.00871056 
C60      C      0.547840000000     0.487870000000     0.177550000000     0.00928196 
C61      C      0.499370000000     0.542690000000     0.173170000000     0.00907284 
C62      C      0.526820000000     0.471190000000     0.213580000000    -0.100329   
C63      C      0.471430000000     0.528770000000     0.297450000000    -0.0998546  
C64      C      0.477940000000     0.527860000000     0.209810000000    -0.100033   
C65      C      0.502190000000     0.504270000000     0.276200000000     0.0183385  
C66      C      0.504380000000     0.502910000000     0.235780000000     0.0182904  
C67      C      0.517830000000     0.468420000000     0.339020000000     0.00944951 
C68      C      0.534570000000     0.488950000000     0.302830000000    -0.100421   
C69      C      0.456130000000     0.838010000000     0.481060000000     0.00905919 
C70      C      0.536600000000     0.671110000000     0.501510000000     0.010567   
C71      C      0.483530000000     0.670350000000     0.451780000000     0.00958309 
C72      C      0.524930000000     0.711460000000     0.516780000000    -0.0990655  
C73      C      0.471620000000     0.799450000000     0.463670000000    -0.0994033  
C74      C      0.470370000000     0.711920000000     0.462900000000    -0.09885    
C75      C      0.495960000000     0.775010000000     0.492360000000     0.0179893  
C76      C      0.499100000000     0.734830000000     0.488600000000     0.0178148  
C77      C      0.504160000000     0.834650000000     0.536170000000     0.00999762 
C78      C      0.523230000000     0.797950000000     0.519350000000    -0.0997789  
C79      C      0.547280000000     0.173940000000     0.506180000000     0.0103193  
C80      C      0.451400000000     0.333030000000     0.528400000000     0.0100982  
C81      C      0.495930000000     0.333940000000     0.470720000000     0.010562   
C82      C      0.471010000000     0.296270000000     0.545130000000    -0.0992255  
C83      C      0.530120000000     0.212600000000     0.491020000000    -0.0988126  
C84      C      0.518640000000     0.298250000000     0.485210000000    -0.0994647  
C85      C      0.504650000000     0.234710000000     0.520780000000     0.0178438  
C86      C      0.496240000000     0.273890000000     0.515430000000     0.0179717  
C87      C      0.502740000000     0.173070000000     0.563590000000     0.0110715  
C88      C      0.482010000000     0.210610000000     0.551070000000    -0.099056   
C89      C      0.484320000000     0.824950000000     0.013270000000     0.0103131  
C90      C      0.545420000000     0.674170000000     0.980250000000     0.00791672 
C91      C      0.480710000000     0.671840000000     0.015180000000     0.0107934  
C92      C      0.561180000000     0.703680000000     0.010770000000    -0.099839   
C93      C      0.485290000000     0.785760000000     0.035220000000    -0.101174   
C94      C      0.495860000000     0.699350000000     0.047030000000    -0.100707   
C95      C      0.524360000000     0.765490000000     0.029410000000     0.0182547  
C96      C      0.527300000000     0.725570000000     0.029710000000     0.0181246  
C97      C      0.553440000000     0.832630000000     0.040200000000     0.00972843 
C98      C      0.559760000000     0.791540000000     0.022570000000    -0.100975   
C99      C      0.478520000000     0.330890000000     0.015720000000     0.00890681 
C100     C      0.541380000000     0.165680000000     0.989130000000     0.00889401 
C101     C      0.471690000000     0.169760000000     0.013440000000     0.00851245 
C102     C      0.552040000000     0.202760000000     0.012370000000    -0.100586   
C103     C      0.483080000000     0.290800000000     0.996060000000    -0.100364   
C104     C      0.481270000000     0.207830000000     0.035230000000    -0.100306   
C105     C      0.517530000000     0.268180000000     0.012690000000     0.0189245  
C106     C      0.516260000000     0.228410000000     0.017230000000     0.0189769  
C107     C      0.549560000000     0.330190000000     0.035370000000     0.0094646  
C108     C      0.555580000000     0.290870000000     0.014270000000    -0.100598   
C109     C      0.476980000000     0.029960000000     0.685880000000     0.00885614 
C110     C      0.466770000000     0.953630000000     0.844940000000     0.00973672 
C111     C      0.480860000000     0.026160000000     0.840110000000     0.00886598 
C112     C      0.483890000000     0.946940000000     0.803870000000    -0.101395   
C113     C      0.450910000000     0.018120000000     0.720330000000    -0.100848   
C114     C      0.496750000000     0.020540000000     0.798500000000    -0.100561   
C115     C      0.468160000000     0.983060000000     0.741330000000     0.0194249  
C116     C      0.480080000000     0.983910000000     0.779570000000     0.0199929  
C117     C      0.501520000000     0.959930000000     0.681050000000     0.00924201 
C118     C      0.474610000000     0.947840000000     0.715050000000    -0.101552   
C119     C      0.520360000000     0.041840000000     0.343710000000     0.00970014 
C120     C      0.459610000000     0.006770000000     0.177100000000     0.00807393 
C121     C      0.531460000000     0.990750000000     0.181030000000     0.00972219 
C122     C      0.462150000000     0.028920000000     0.216230000000    -0.100111   
C123     C      0.531200000000     0.020030000000     0.306000000000    -0.100608   
C124     C      0.535410000000     0.014930000000     0.218740000000    -0.100912   
C125     C      0.495170000000     0.013660000000     0.280860000000     0.0183863  
C126     C      0.496870000000     0.015740000000     0.240710000000     0.0189559  
C127     C      0.452190000000     0.014490000000     0.341810000000     0.00830823 
C128     C      0.460710000000     0.994920000000     0.302060000000    -0.0997862  
C129     C      0.654490000000     0.456260000000     0.518640000000     0.00914341 
C130     C      0.816190000000     0.522980000000     0.482670000000     0.0100618  
C131     C      0.816730000000     0.452990000000     0.506380000000     0.0089562  
C132     C      0.780560000000     0.532160000000     0.508240000000    -0.100975   
C133     C      0.693580000000     0.461470000000     0.497360000000    -0.100075   
C134     C      0.779300000000     0.460290000000     0.529940000000    -0.100219   
C135     C      0.716820000000     0.495820000000     0.513640000000     0.0186689  
C136     C      0.756650000000     0.495270000000     0.514250000000     0.0189463  
C137     C      0.656640000000     0.526210000000     0.541860000000     0.0101822  
C138     C      0.694160000000     0.533700000000     0.518590000000    -0.100704   
C139     C      0.154060000000     0.542220000000     0.500790000000     0.00849392 
C140     C      0.317870000000     0.475710000000     0.529200000000     0.0102158  
C141     C      0.317860000000     0.545510000000     0.504790000000     0.00841886 
C142     C      0.280840000000     0.466730000000     0.505770000000    -0.101023   
C143     C      0.194080000000     0.537150000000     0.520430000000    -0.0999152  
C144     C      0.278610000000     0.538550000000     0.484170000000    -0.100037   
C145     C      0.216940000000     0.502980000000     0.503300000000     0.0187697  
C146     C      0.256760000000     0.503670000000     0.501190000000     0.0189172  
C147     C      0.156210000000     0.472300000000     0.477000000000     0.0102205  
C148     C      0.194260000000     0.465050000000     0.499380000000    -0.100905   
C149     C      0.848990000000     0.551740000000     0.039320000000     0.00972173 
C150     C      0.691440000000     0.473820000000     0.016890000000     0.00934769 
C151     C      0.687270000000     0.543170000000     0.990790000000     0.00884412 
C152     C      0.725530000000     0.485740000000     0.043290000000    -0.100753   
C153     C      0.809620000000     0.558400000000     0.018620000000    -0.101029   
C154     C      0.720890000000     0.555870000000     0.017900000000    -0.101088   
C155     C      0.785830000000     0.520930000000     0.018880000000     0.0194815  
C156     C      0.746690000000     0.520800000000     0.026140000000     0.0192459  
C157     C      0.846180000000     0.479580000000     0.023100000000     0.00923641 
C158     C      0.806710000000     0.485080000000     0.003040000000    -0.100309   
C159     C      0.184790000000     0.534390000000     0.971990000000     0.009565   
C160     C      0.347400000000     0.471620000000     0.983390000000     0.00969937 
C161     C      0.349590000000     0.538440000000     0.016930000000     0.0102004  
C162     C      0.307090000000     0.468040000000     0.002950000000    -0.100491   
C163     C      0.222260000000     0.544880000000     0.994410000000    -0.100853   
C164     C      0.309420000000     0.543800000000     0.997630000000    -0.101587   
C165     C      0.245310000000     0.508170000000     0.004560000000     0.0189009  
C166     C      0.285120000000     0.506770000000     0.001820000000     0.0176374  
C167     C      0.184380000000     0.466960000000     0.001780000000     0.00986508 
C168     C      0.222060000000     0.475630000000     0.024210000000    -0.100521   
C169     C      0.948660000000     0.489900000000     0.675090000000     0.00909451 
C170     C      0.041940000000     0.504000000000     0.836220000000     0.00988224 
C171     C      0.983930000000     0.460520000000     0.842200000000     0.00871925 
C172     C      0.027260000000     0.521930000000     0.797870000000    -0.0990622  
C173     C      0.962760000000     0.473610000000     0.714720000000    -0.0990392  
C174     C      0.967800000000     0.474580000000     0.802410000000    -0.0988144  
C175     C      0.991720000000     0.499970000000     0.736460000000     0.017735   
C176     C      0.997220000000     0.496530000000     0.776610000000     0.0175419  
C177     C      0.003050000000     0.538180000000     0.672620000000     0.01009    
C178     C      0.020500000000     0.523120000000     0.711130000000    -0.0991739  
C179     C      0.014680000000     0.553130000000     0.178490000000     0.0112912  
C180     C      0.001640000000     0.450740000000     0.334330000000     0.0104108  
C181     C      0.952640000000     0.504150000000     0.331310000000     0.0102985  
C182     C      0.024690000000     0.467380000000     0.299490000000    -0.0991383  
C183     C      0.991150000000     0.536640000000     0.212850000000    -0.0995144  
C184     C      0.973310000000     0.524070000000     0.296800000000    -0.0991153  
C185     C      0.013170000000     0.505780000000     0.236820000000     0.0179898  
C186     C      0.002150000000     0.497500000000     0.275000000000     0.0179828  
C187     C      0.061220000000     0.497530000000     0.178800000000     0.00991309 
C188     C      0.041390000000     0.478750000000     0.214650000000    -0.0988527  
C189     C      0.996390000000     0.667480000000     0.534390000000     0.00961003 
C190     C      0.987870000000     0.830330000000     0.443690000000     0.00922477 
C191     C      0.038940000000     0.828700000000     0.495500000000     0.0101995  
C192     C      0.970700000000     0.791030000000     0.457170000000    -0.0987849  
C193     C      0.016460000000     0.704220000000     0.518610000000    -0.0989496  
C194     C      0.023460000000     0.790370000000     0.512700000000    -0.0988563  
C195     C      0.991150000000     0.727640000000     0.490030000000     0.017629   
C196     C      0.997030000000     0.767360000000     0.484750000000     0.0175251  
C197     C      0.949200000000     0.665960000000     0.478740000000     0.00932901 
C198     C      0.965950000000     0.703960000000     0.461440000000    -0.0990925  
C199     C      0.977830000000     0.324890000000     0.550020000000     0.009678   
C200     C      0.990190000000     0.167180000000     0.449960000000     0.00991411 
C201     C      0.939630000000     0.163540000000     0.501990000000     0.00988243 
C202     C      0.008230000000     0.204340000000     0.467300000000    -0.0983831  
C203     C      0.960350000000     0.287340000000     0.532460000000    -0.0988117  
C204     C      0.954160000000     0.201230000000     0.521700000000    -0.0986995  
C205     C      0.987650000000     0.265150000000     0.504510000000     0.0176241  
C206     C      0.981540000000     0.226010000000     0.496170000000     0.0174202  
C207     C      0.031460000000     0.325760000000     0.500960000000     0.0106829  
C208     C      0.015860000000     0.289580000000     0.479690000000    -0.0990325  
C209     C      0.830370000000     0.987560000000     0.549380000000     0.0090842  
C210     C      0.664150000000     0.006600000000     0.477600000000     0.00989804 
C211     C      0.663290000000     0.975780000000     0.545910000000     0.00950358 
C212     C      0.703140000000     0.984860000000     0.473570000000    -0.101075   
C213     C      0.791340000000     0.008490000000     0.542190000000    -0.0999064  
C214     C      0.704800000000     0.992820000000     0.549360000000    -0.100708   
C215     C      0.767230000000     0.989010000000     0.509920000000     0.0182024  
C216     C      0.727240000000     0.988850000000     0.510940000000     0.0174964  
C217     C      0.826940000000     0.955520000000     0.483240000000     0.00975032 
C218     C      0.789420000000     0.977530000000     0.472930000000    -0.0999968  
C219     C      0.325650000000     0.050370000000     0.533460000000     0.00893408 
C220     C      0.167500000000     0.975110000000     0.504030000000     0.00864011 
C221     C      0.162720000000     0.046590000000     0.484610000000     0.00872347 
C222     C      0.203110000000     0.984310000000     0.529440000000    -0.100433   
C223     C      0.287360000000     0.058400000000     0.511140000000    -0.100874   
C224     C      0.198460000000     0.056290000000     0.510290000000    -0.101065   
C225     C      0.263470000000     0.021130000000     0.507970000000     0.0191319  
C226     C      0.224090000000     0.020340000000     0.514240000000     0.0191497  
C227     C      0.323280000000     0.979170000000     0.513150000000     0.00880297 
C228     C      0.285230000000     0.986390000000     0.490910000000    -0.100377   
C229     C      0.032760000000     0.678600000000     0.961680000000     0.00889107 
C230     C      0.992460000000     0.837900000000     0.031980000000     0.00933138 
C231     C      0.971170000000     0.837890000000     0.961190000000     0.00891665 
C232     C      0.018970000000     0.802700000000     0.024480000000    -0.0999908  
C233     C      0.006250000000     0.714150000000     0.953610000000    -0.100616   
C234     C      0.997410000000     0.802420000000     0.952330000000    -0.100912   
C235     C      0.002210000000     0.739050000000     0.990420000000     0.0191287  
C236     C      0.004310000000     0.778980000000     0.989630000000     0.0186664  
C237     C      0.017050000000     0.682150000000     0.034040000000     0.0100062  
C238     C      0.989810000000     0.716750000000     0.026920000000    -0.100961   
C239     C      0.970310000000     0.340130000000     0.012380000000     0.0105249  
C240     C      0.043550000000     0.177190000000     0.984510000000     0.00984893 
C241     C      0.974980000000     0.178130000000     0.013910000000     0.0101734  
C242     C      0.047990000000     0.216520000000     0.005890000000    -0.100915   
C243     C      0.980510000000     0.306480000000     0.984660000000    -0.100993   
C244     C      0.972890000000     0.219510000000     0.996380000000    -0.101561   
C245     C      0.012830000000     0.281260000000     0.002100000000     0.0185636  
C246     C      0.011340000000     0.241240000000     0.001430000000     0.0181231  
C247     C      0.037010000000     0.337790000000     0.042790000000     0.00926196 
C248     C      0.048810000000     0.303490000000     0.016080000000    -0.100127   
C249     C      0.835070000000     0.000580000000     0.936860000000     0.00819172 
C250     C      0.675720000000     0.990440000000     0.027200000000     0.0100503  
C251     C      0.667970000000     0.007750000000     0.954700000000     0.00876043 
C252     C      0.714860000000     0.011870000000     0.023660000000    -0.100739   
C253     C      0.797470000000     0.980060000000     0.950970000000    -0.0994207  
C254     C      0.709180000000     0.989890000000     0.950940000000    -0.100518   
C255     C      0.775060000000     0.003670000000     0.981840000000     0.0176879  
C256     C      0.735200000000     0.001860000000     0.985160000000     0.0172824  
C257     C      0.833900000000     0.044660000000     0.995560000000     0.0098324  
C258     C      0.799710000000     0.022600000000     0.013750000000    -0.0996286  
C259     C      0.334240000000     0.955030000000     0.991920000000     0.00865729 
C260     C      0.175290000000     0.030850000000     0.000590000000     0.00907654 
C261     C      0.168050000000     0.960110000000     0.021830000000     0.00902722 
C262     C      0.214530000000     0.021220000000     0.981570000000    -0.10105    
C263     C      0.295490000000     0.948350000000     0.013650000000    -0.100823   
C264     C      0.207390000000     0.949950000000     0.002640000000    -0.101123   
C265     C      0.271380000000     0.985520000000     0.012600000000     0.0192128  
C266     C      0.233150000000     0.986020000000     0.001230000000     0.0196564  
C267     C      0.331040000000     0.027610000000     0.007240000000     0.00874177 
C268     C      0.292220000000     0.021370000000     0.028490000000    -0.100556   
C269     C      0.016710000000     0.965800000000     0.664730000000     0.00898985 
C270     C      0.049390000000     0.039680000000     0.824390000000     0.00978909 
C271     C      0.025780000000     0.969840000000     0.821950000000     0.00918231 
C272     C      0.030980000000     0.048110000000     0.784130000000    -0.100772   
C273     C      0.045580000000     0.973990000000     0.698030000000    -0.100644   
C274     C      0.008270000000     0.976530000000     0.781150000000    -0.0999283  
C275     C      0.033680000000     0.010380000000     0.720580000000     0.0192515  
C276     C      0.027690000000     0.010710000000     0.760250000000     0.0191308  
C277     C      0.998960000000     0.037860000000     0.662780000000     0.0087225  
C278     C      0.028860000000     0.046570000000     0.695290000000    -0.101108   
C279     C      0.958550000000     0.988110000000     0.323160000000     0.00955838 
C280     C      0.031690000000     0.008680000000     0.162330000000     0.0087391  
C281     C      0.962030000000     0.032810000000     0.158940000000     0.00966328 
C282     C      0.023360000000     0.989150000000     0.201920000000    -0.100118   
C283     C      0.951680000000     0.013120000000     0.286370000000    -0.101398   
C284     C      0.952460000000     0.012220000000     0.197810000000    -0.101085   
C285     C      0.988810000000     0.014610000000     0.262220000000     0.0191189  
C286     C      0.989040000000     0.008340000000     0.222590000000     0.0189457  
C287     C      0.030490000000     0.005080000000     0.322270000000     0.00867627 
C288     C      0.024490000000     0.028740000000     0.284550000000    -0.100328   
H1       H      0.445100000000     0.467230000000     0.734370000000     0.0442386  
H2       H      0.578040000000     0.487110000000     0.823470000000     0.0301558  
H3       H      0.473850000000     0.571770000000     0.686940000000     0.0301044  
H4       H      0.526500000000     0.561820000000     0.730130000000     0.044355   
H5       H      0.558990000000     0.535740000000     0.778440000000     0.0443895  
H6       H      0.476780000000     0.441910000000     0.783390000000     0.0442451  
H7       H      0.435920000000     0.471310000000     0.661970000000     0.0409083  
H8       H      0.569130000000     0.531200000000     0.850420000000     0.041265   
H9       H      0.546910000000     0.521680000000     0.702390000000     0.0534106  
H10      H      0.456550000000     0.482460000000     0.810630000000     0.0533912  
H11      H      0.517260000000     0.567240000000     0.658030000000     0.0409138  
H12      H      0.528600000000     0.431370000000     0.827110000000     0.0300532  
H13      H      0.486550000000     0.451220000000     0.705850000000     0.0532329  
H14      H      0.517900000000     0.552070000000     0.807350000000     0.0536904  
H15      H      0.485320000000     0.437510000000     0.855890000000     0.041118   
H16      H      0.425470000000     0.515000000000     0.688990000000     0.0300169  
H17      H      0.444810000000     0.533290000000     0.279400000000     0.0443269  
H18      H      0.572310000000     0.507060000000     0.187210000000     0.0310104  
H19      H      0.503040000000     0.440800000000     0.329990000000     0.0310197  
H20      H      0.555380000000     0.468550000000     0.289000000000     0.0446445  
H21      H      0.548670000000     0.454980000000     0.230920000000     0.0446112  
H22      H      0.467500000000     0.554700000000     0.224920000000     0.0442198  
H23      H      0.438940000000     0.530810000000     0.351470000000     0.0412451  
H24      H      0.560720000000     0.462840000000     0.161060000000     0.0407625  
H25      H      0.552220000000     0.514490000000     0.312750000000     0.0543471  
H26      H      0.452140000000     0.510170000000     0.200870000000     0.0530005  
H27      H      0.542790000000     0.460270000000     0.358300000000     0.0411124  
H28      H      0.520670000000     0.565780000000     0.181840000000     0.0303776  
H29      H      0.484130000000     0.557900000000     0.304650000000     0.0520985  
H30      H      0.505310000000     0.448930000000     0.203450000000     0.0541515  
H31      H      0.477320000000     0.556850000000     0.153800000000     0.0413296  
H32      H      0.437350000000     0.484060000000     0.327470000000     0.0312404  
H33      H      0.445270000000     0.783580000000     0.453390000000     0.0439646  
H34      H      0.559360000000     0.674330000000     0.478320000000     0.0295921  
H35      H      0.481520000000     0.826190000000     0.558110000000     0.0306785  
H36      H      0.532350000000     0.780920000000     0.545550000000     0.0442639  
H37      H      0.553090000000     0.726690000000     0.522230000000     0.0439999  
H38      H      0.465400000000     0.727060000000     0.434440000000     0.0438286  
H39      H      0.446080000000     0.856540000000     0.456100000000     0.040527   
H40      H      0.550250000000     0.654830000000     0.526300000000     0.0406827  
H41      H      0.549820000000     0.806270000000     0.502500000000     0.0534105  
H42      H      0.442040000000     0.710060000000     0.478820000000     0.0520295  
H43      H      0.527230000000     0.851100000000     0.552230000000     0.0414418  
H44      H      0.504320000000     0.671880000000     0.426640000000     0.030209   
H45      H      0.490060000000     0.806150000000     0.437590000000     0.0518739  
H46      H      0.509230000000     0.708070000000     0.545220000000     0.0533287  
H47      H      0.457330000000     0.654090000000     0.441370000000     0.0405948  
H48      H      0.430210000000     0.831790000000     0.499830000000     0.0310928  
H49      H      0.555730000000     0.230470000000     0.482040000000     0.0440287  
H50      H      0.425800000000     0.324360000000     0.510170000000     0.0300844  
H51      H      0.527370000000     0.180490000000     0.583660000000     0.0290945  
H52      H      0.477460000000     0.227300000000     0.578730000000     0.0440712  
H53      H      0.446620000000     0.278000000000     0.556350000000     0.044107   
H54      H      0.525460000000     0.281190000000     0.458290000000     0.0441656  
H55      H      0.557970000000     0.156900000000     0.480440000000     0.0403168  
H56      H      0.440050000000     0.350520000000     0.553530000000     0.0403473  
H57      H      0.452990000000     0.203010000000     0.538460000000     0.0540326  
H58      H      0.546560000000     0.308100000000     0.498690000000     0.0534915  
H59      H      0.481900000000     0.155050000000     0.580980000000     0.0406164  
H60      H      0.472110000000     0.324250000000     0.450640000000     0.0298366  
H61      H      0.512120000000     0.206450000000     0.464480000000     0.0524249  
H62      H      0.489790000000     0.304790000000     0.570420000000     0.0524667  
H63      H      0.516180000000     0.352270000000     0.452950000000     0.040889   
H64      H      0.573070000000     0.180140000000     0.525140000000     0.0299296  
H65      H      0.480200000000     0.790680000000     0.067150000000     0.0516471  
H66      H      0.533840000000     0.690370000000     0.954340000000     0.0315564  
H67      H      0.551840000000     0.830600000000     0.072830000000     0.0346207  
H68      H      0.586120000000     0.778660000000     0.036690000000     0.0449101  
H69      H      0.582120000000     0.723340000000     0.995550000000     0.0441406  
H70      H      0.471140000000     0.715330000000     0.060720000000     0.0445783  
H71      H      0.485830000000     0.819660000000     0.980990000000     0.0358173  
H72      H      0.570210000000     0.655820000000     0.969830000000     0.0401915  
H73      H      0.565110000000     0.794190000000     0.990410000000     0.0517704  
H74      H      0.509160000000     0.681520000000     0.070920000000     0.0562962  
H75      H      0.579200000000     0.850970000000     0.032380000000     0.0375933  
H76      H      0.465730000000     0.689200000000     0.991920000000     0.0287078  
H77      H      0.460970000000     0.767800000000     0.023140000000     0.0454399  
H78      H      0.577490000000     0.687610000000     0.034020000000     0.0523443  
H79      H      0.458350000000     0.652050000000     0.028170000000     0.0399854  
H80      H      0.455830000000     0.839250000000     0.019930000000     0.037798   
H81      H      0.454890000000     0.274990000000     0.997930000000     0.0446559  
H82      H      0.535000000000     0.173490000000     0.958000000000     0.0335078  
H83      H      0.544140000000     0.325060000000     0.067240000000     0.0327767  
H84      H      0.578450000000     0.274700000000     0.030880000000     0.0446086  
H85      H      0.575630000000     0.217800000000     0.995730000000     0.0445475  
H86      H      0.454640000000     0.226170000000     0.036870000000     0.0447129  
H87      H      0.456520000000     0.347840000000     0.998670000000     0.0402044  
H88      H      0.567470000000     0.146200000000     0.989400000000     0.0395821  
H89      H      0.566300000000     0.296050000000     0.983820000000     0.0522439  
H90      H      0.488820000000     0.200410000000     0.066170000000     0.0538137  
H91      H      0.577210000000     0.347140000000     0.032550000000     0.0394049  
H92      H      0.457970000000     0.177000000000     0.984670000000     0.030305   
H93      H      0.488640000000     0.295480000000     0.964170000000     0.0541719  
H94      H      0.563540000000     0.194590000000     0.041850000000     0.0521744  
H95      H      0.449620000000     0.153600000000     0.031160000000     0.0405999  
H96      H      0.466600000000     0.326790000000     0.045890000000     0.0300805  
H97      H      0.445120000000     0.043540000000     0.739780000000     0.0449059  
H98      H      0.434410000000     0.956290000000     0.843020000000     0.032938   
H99      H      0.531510000000     0.965560000000     0.692390000000     0.0329764  
H100     H      0.488640000000     0.922720000000     0.730170000000     0.0446799  
H101     H      0.467430000000     0.922040000000     0.790870000000     0.0448031  
H102     H      0.491870000000     0.047750000000     0.781440000000     0.0452085  
H103     H      0.461420000000     0.053040000000     0.668900000000     0.0406877  
H104     H      0.473590000000     0.927120000000     0.862740000000     0.0402636  
H105     H      0.446040000000     0.937740000000     0.703190000000     0.0525058  
H106     H      0.528990000000     0.016850000000     0.800320000000     0.0543024  
H107     H      0.503130000000     0.934630000000     0.660440000000     0.0400492  
H108     H      0.449870000000     0.035900000000     0.838440000000     0.0304203  
H109     H      0.421900000000     0.009410000000     0.708440000000     0.05398    
H110     H      0.515240000000     0.938650000000     0.806150000000     0.0526042  
H111     H      0.497850000000     0.050190000000     0.854140000000     0.0409701  
H112     H      0.504450000000     0.043130000000     0.697350000000     0.03006    
H113     H      0.553360000000     0.038370000000     0.290760000000     0.0445496  
H114     H      0.448640000000     0.976580000000     0.182700000000     0.0308406  
H115     H      0.437380000000     0.043050000000     0.336600000000     0.0304098  
H116     H      0.433390000000     0.994530000000     0.284700000000     0.0446234  
H117     H      0.433700000000     0.026420000000     0.231450000000     0.0446136  
H118     H      0.559020000000     0.000980000000     0.236270000000     0.0446752  
H119     H      0.547300000000     0.043750000000     0.361930000000     0.0409115  
H120     H      0.437590000000     0.021930000000     0.158460000000     0.040915   
H121     H      0.468330000000     0.963710000000     0.307560000000     0.0537348  
H122     H      0.544380000000     0.045410000000     0.211440000000     0.0523517  
H123     H      0.431360000000     0.995500000000     0.358170000000     0.0406825  
H124     H      0.527500000000     0.959240000000     0.188500000000     0.0332253  
H125     H      0.544550000000     0.991220000000     0.313330000000     0.0529612  
H126     H      0.466090000000     0.060630000000     0.209730000000     0.0535541  
H127     H      0.559450000000     0.993740000000     0.164620000000     0.0399777  
H128     H      0.511080000000     0.072290000000     0.336590000000     0.0318719  
H129     H      0.709450000000     0.433220000000     0.498070000000     0.0446297  
H130     H      0.806720000000     0.515610000000     0.452230000000     0.032365   
H131     H      0.663870000000     0.518340000000     0.572790000000     0.0318488  
H132     H      0.711210000000     0.555910000000     0.535280000000     0.0446353  
H133     H      0.763740000000     0.555380000000     0.492780000000     0.0447261  
H134     H      0.762180000000     0.432780000000     0.531050000000     0.0445767  
H135     H      0.636620000000     0.434890000000     0.501700000000     0.0401418  
H136     H      0.834190000000     0.550120000000     0.481140000000     0.04004    
H137     H      0.686920000000     0.545900000000     0.489130000000     0.0527014  
H138     H      0.787580000000     0.466920000000     0.560870000000     0.0539977  
H139     H      0.639820000000     0.554120000000     0.542420000000     0.0397998  
H140     H      0.808970000000     0.439650000000     0.477560000000     0.0300531  
H141     H      0.687510000000     0.467660000000     0.465820000000     0.0542847  
H142     H      0.790120000000     0.543720000000     0.537290000000     0.0527534  
H143     H      0.834690000000     0.431200000000     0.522690000000     0.04022    
H144     H      0.659880000000     0.443210000000     0.548140000000     0.0298396  
H145     H      0.209780000000     0.565490000000     0.519060000000     0.0445434  
H146     H      0.310210000000     0.483280000000     0.560100000000     0.0327207  
H147     H      0.162660000000     0.480020000000     0.445850000000     0.0324582  
H148     H      0.210800000000     0.442650000000     0.482440000000     0.0446713  
H149     H      0.264870000000     0.443600000000     0.522260000000     0.0447482  
H150     H      0.261710000000     0.566210000000     0.484660000000     0.0445748  
H151     H      0.136600000000     0.562830000000     0.519060000000     0.0403322  
H152     H      0.335650000000     0.448380000000     0.529760000000     0.0400306  
H153     H      0.187780000000     0.453130000000     0.529130000000     0.0527726  
H154     H      0.284450000000     0.532110000000     0.452640000000     0.0535101  
H155     H      0.139570000000     0.444270000000     0.477090000000     0.0397934  
H156     H      0.312450000000     0.559630000000     0.533780000000     0.0304724  
H157     H      0.189350000000     0.530950000000     0.552200000000     0.0536503  
H158     H      0.288640000000     0.455110000000     0.476220000000     0.0528019  
H159     H      0.334970000000     0.566550000000     0.486670000000     0.0403856  
H160     H      0.158130000000     0.556120000000     0.471470000000     0.0302732  
H161     H      0.794530000000     0.582450000000     0.034610000000     0.0445561  
H162     H      0.703020000000     0.460470000000     0.989390000000     0.0296738  
H163     H      0.841450000000     0.469490000000     0.053860000000     0.0300072  
H164     H      0.789710000000     0.457550000000     0.005440000000     0.0450081  
H165     H      0.744650000000     0.460180000000     0.049140000000     0.0449424  
H166     H      0.736670000000     0.580080000000     0.002920000000     0.044454   
H167     H      0.867100000000     0.578450000000     0.034700000000     0.0385565  
H168     H      0.674370000000     0.450830000000     0.032460000000     0.0403695  
H169     H      0.811760000000     0.489730000000     0.971060000000     0.0546247  
H170     H      0.708930000000     0.567270000000     0.046090000000     0.0522219  
H171     H      0.861990000000     0.455790000000     0.007360000000     0.0405175  
H172     H      0.698820000000     0.536420000000     0.960950000000     0.0327416  
H173     H      0.814610000000     0.567810000000     0.987710000000     0.0520578  
H174     H      0.713580000000     0.494500000000     0.072420000000     0.0544782  
H175     H      0.666990000000     0.568530000000     0.988020000000     0.0397321  
H176     H      0.844280000000     0.548190000000     0.071520000000     0.0328756  
H177     H      0.239080000000     0.565200000000     0.975300000000     0.0446402  
H178     H      0.362790000000     0.443110000000     0.987180000000     0.0378089  
H179     H      0.191610000000     0.451800000000     0.973720000000     0.029464   
H180     H      0.238430000000     0.447780000000     0.027470000000     0.0443075  
H181     H      0.310750000000     0.458620000000     0.034050000000     0.051605   
H182     H      0.295140000000     0.569080000000     0.012470000000     0.0449596  
H183     H      0.167260000000     0.561680000000     0.968930000000     0.0400734  
H184     H      0.343850000000     0.477080000000     0.951320000000     0.034581   
H185     H      0.214400000000     0.485470000000     0.054430000000     0.0546067  
H186     H      0.313090000000     0.550820000000     0.965900000000     0.0518114  
H187     H      0.166720000000     0.446220000000     0.019690000000     0.0405013  
H188     H      0.346030000000     0.534950000000     0.049280000000     0.0355358  
H189     H      0.214670000000     0.560570000000     0.022050000000     0.0527208  
H190     H      0.290600000000     0.445080000000     0.986690000000     0.0450164  
H191     H      0.366820000000     0.565590000000     0.011460000000     0.0374649  
H192     H      0.192280000000     0.523990000000     0.941890000000     0.0318711  
H193     H      0.935750000000     0.468900000000     0.732130000000     0.044025   
H194     H      0.061660000000     0.478900000000     0.829570000000     0.0304     
H195     H      0.983260000000     0.563330000000     0.678820000000     0.0302416  
H196     H      0.031040000000     0.549840000000     0.726390000000     0.0442171  
H197     H      0.054000000000     0.526330000000     0.779960000000     0.0442457  
H198     H      0.956990000000     0.447670000000     0.787670000000     0.0439251  
H199     H      0.934320000000     0.465460000000     0.658950000000     0.0410305  
H200     H      0.059900000000     0.526590000000     0.851360000000     0.0414443  
H201     H      0.046030000000     0.504070000000     0.704490000000     0.0532133  
H202     H      0.942470000000     0.494280000000     0.807770000000     0.0519416  
H203     H      0.027550000000     0.549580000000     0.654420000000     0.0410619  
H204     H      0.001030000000     0.433110000000     0.837790000000     0.0309829  
H205     H      0.976910000000     0.444690000000     0.709770000000     0.0523238  
H206     H      0.013970000000     0.551020000000     0.804050000000     0.0534807  
H207     H      0.958540000000     0.453070000000     0.861210000000     0.0406097  
H208     H      0.925990000000     0.512710000000     0.680320000000     0.0307837  
H209     H      0.983400000000     0.562500000000     0.231080000000     0.0442788  
H210     H      0.980110000000     0.428830000000     0.323420000000     0.0295995  
H211     H      0.085630000000     0.516640000000     0.188850000000     0.0298824  
H212     H      0.065680000000     0.468950000000     0.233940000000     0.0441071  
H213     H      0.033110000000     0.441520000000     0.281590000000     0.0441791  
H214     H      0.949460000000     0.534210000000     0.277140000000     0.0442979  
H215     H      0.994870000000     0.571250000000     0.160020000000     0.040432   
H216     H      0.022390000000     0.434720000000     0.353690000000     0.0406978  
H217     H      0.024860000000     0.452460000000     0.204810000000     0.0528182  
H218     H      0.989430000000     0.550160000000     0.307820000000     0.0533429  
H219     H      0.074400000000     0.473770000000     0.160760000000     0.0406085  
H220     H      0.929950000000     0.483720000000     0.319880000000     0.0299124  
H221     H      0.963780000000     0.523280000000     0.201410000000     0.0542766  
H222     H      0.051760000000     0.481530000000     0.310680000000     0.0532958  
H223     H      0.937110000000     0.527080000000     0.348500000000     0.0408399  
H224     H      0.037690000000     0.573200000000     0.189920000000     0.0291961  
H225     H      0.024090000000     0.721440000000     0.545200000000     0.0440459  
H226     H      0.009400000000     0.825120000000     0.419700000000     0.0302809  
H227     H      0.923630000000     0.673020000000     0.497710000000     0.0304663  
H228     H      0.940100000000     0.720830000000     0.451420000000     0.0438896  
H229     H      0.964570000000     0.774700000000     0.429630000000     0.0438478  
H230     H      0.049990000000     0.773380000000     0.520570000000     0.0439719  
H231     H      0.018710000000     0.650280000000     0.550760000000     0.0410557  
H232     H      0.963670000000     0.847970000000     0.430900000000     0.0407437  
H233     H      0.984030000000     0.696680000000     0.435260000000     0.0520338  
H234     H      0.006820000000     0.796820000000     0.540050000000     0.0532414  
H235     H      0.938230000000     0.647910000000     0.453820000000     0.040541   
H236     H      0.062230000000     0.822220000000     0.473570000000     0.0298382  
H237     H      0.043940000000     0.695750000000     0.503360000000     0.0529213  
H238     H      0.942530000000     0.796550000000     0.472510000000     0.0523842  
H239     H      0.052880000000     0.845460000000     0.519800000000     0.0407584  
H240     H      0.973390000000     0.675990000000     0.555920000000     0.0303336  
H241     H      0.952110000000     0.269050000000     0.558160000000     0.0439398  
H242     H      0.967870000000     0.175340000000     0.427580000000     0.0296361  
H243     H      0.053080000000     0.316590000000     0.523640000000     0.029462   
H244     H      0.042220000000     0.272570000000     0.471330000000     0.0440992  
H245     H      0.015570000000     0.222920000000     0.441520000000     0.0440687  
H246     H      0.927340000000     0.217720000000     0.529640000000     0.0439661  
H247     H      0.953610000000     0.342240000000     0.563150000000     0.0405623  
H248     H      0.013500000000     0.150770000000     0.434220000000     0.0408862  
H249     H      0.000550000000     0.298910000000     0.452390000000     0.0537807  
H250     H      0.969860000000     0.193420000000     0.549250000000     0.052835   
H251     H      0.047520000000     0.344010000000     0.479220000000     0.0405769  
H252     H      0.916020000000     0.170860000000     0.480690000000     0.0296642  
H253     H      0.933290000000     0.294980000000     0.516050000000     0.0524594  
H254     H      0.035770000000     0.196540000000     0.482810000000     0.0532647  
H255     H      0.926280000000     0.144630000000     0.524990000000     0.0406821  
H256     H      0.998090000000     0.317080000000     0.574410000000     0.0299561  
H257     H      0.775860000000     0.010380000000     0.570770000000     0.0443175  
H258     H      0.669570000000     0.038660000000     0.480290000000     0.0355581  
H259     H      0.819590000000     0.926370000000     0.495960000000     0.0309914  
H260     H      0.772060000000     0.957690000000     0.453780000000     0.0444376  
H261     H      0.718490000000     0.997900000000     0.447890000000     0.044821   
H262     H      0.703050000000     0.024310000000     0.557610000000     0.0518027  
H263     H      0.848630000000     0.006560000000     0.568560000000     0.0407103  
H264     H      0.647170000000     0.001410000000     0.450150000000     0.0378185  
H265     H      0.796660000000     0.004440000000     0.455950000000     0.0531495  
H266     H      0.719850000000     0.976460000000     0.573250000000     0.0452797  
H267     H      0.843100000000     0.950210000000     0.455370000000     0.0410345  
H268     H      0.647720000000     0.981940000000     0.574000000000     0.0382978  
H269     H      0.797490000000     0.039090000000     0.532780000000     0.0538428  
H270     H      0.697680000000     0.953300000000     0.467550000000     0.051725   
H271     H      0.664930000000     0.943430000000     0.542110000000     0.0346653  
H272     H      0.824900000000     0.959900000000     0.565820000000     0.0300782  
H273     H      0.271600000000     0.081670000000     0.527620000000     0.0445008  
H274     H      0.177390000000     0.963950000000     0.474920000000     0.0303752  
H275     H      0.316480000000     0.967360000000     0.542890000000     0.030272   
H276     H      0.268030000000     0.958920000000     0.489930000000     0.0449906  
H277     H      0.221840000000     0.957950000000     0.532020000000     0.0448034  
H278     H      0.213910000000     0.081130000000     0.495990000000     0.044524   
H279     H      0.344080000000     0.077140000000     0.531070000000     0.0392721  
H280     H      0.151040000000     0.951080000000     0.518660000000     0.0407494  
H281     H      0.292460000000     0.993380000000     0.459790000000     0.0544946  
H282     H      0.188720000000     0.065860000000     0.539980000000     0.051848   
H283     H      0.339790000000     0.956140000000     0.497030000000     0.0408694  
H284     H      0.172040000000     0.042880000000     0.453460000000     0.0331811  
H285     H      0.293970000000     0.069510000000     0.481110000000     0.0519734  
H286     H      0.192890000000     0.990730000000     0.559830000000     0.0539618  
H287     H      0.142630000000     0.072210000000     0.486000000000     0.0395863  
H288     H      0.319250000000     0.045400000000     0.565160000000     0.0330422  
H289     H      0.019720000000     0.730680000000     0.928940000000     0.0445813  
H290     H      0.963730000000     0.827480000000     0.043200000000     0.0296311  
H291     H      0.046400000000     0.693170000000     0.042760000000     0.0298235  
H292     H      0.987830000000     0.734700000000     0.053950000000     0.0449142  
H293     H      0.022520000000     0.785800000000     0.052030000000     0.0449182  
H294     H      0.982370000000     0.784920000000     0.929300000000     0.0444802  
H295     H      0.031080000000     0.658920000000     0.935630000000     0.0398144  
H296     H      0.005780000000     0.856120000000     0.055550000000     0.0407662  
H297     H      0.959830000000     0.705260000000     0.021790000000     0.0550717  
H298     H      0.025950000000     0.812550000000     0.940440000000     0.052693   
H299     H      0.005400000000     0.665080000000     0.059330000000     0.0406761  
H300     H      0.940980000000     0.827710000000     0.967790000000     0.031348   
H301     H      0.976830000000     0.703970000000     0.944210000000     0.0518291  
H302     H      0.048660000000     0.813730000000     0.017060000000     0.055262   
H303     H      0.969710000000     0.856130000000     0.934110000000     0.040571   
H304     H      0.063600000000     0.688480000000     0.964700000000     0.0321276  
H305     H      0.953360000000     0.290290000000     0.977540000000     0.0444572  
H306     H      0.041580000000     0.182250000000     0.952230000000     0.0350508  
H307     H      0.026030000000     0.326270000000     0.071360000000     0.0309154  
H308     H      0.069060000000     0.284810000000     0.033400000000     0.0443259  
H309     H      0.073740000000     0.231530000000     0.992800000000     0.0446472  
H310     H      0.965640000000     0.217650000000     0.964540000000     0.0517555  
H311     H      0.948640000000     0.359400000000     0.997570000000     0.0401804  
H312     H      0.070370000000     0.159680000000     0.990450000000     0.0382403  
H313     H      0.064900000000     0.314840000000     0.990040000000     0.0525901  
H314     H      0.948920000000     0.235070000000     0.011990000000     0.0453926  
H315     H      0.063650000000     0.355360000000     0.049110000000     0.0404581  
H316     H      0.946910000000     0.163100000000     0.007090000000     0.0383384  
H317     H      0.991320000000     0.318940000000     0.956450000000     0.0553086  
H318     H      0.053700000000     0.211290000000     0.037670000000     0.0516442  
H319     H      0.977910000000     0.180010000000     0.046460000000     0.0345395  
H320     H      0.955900000000     0.328190000000     0.039170000000     0.0290969  
H321     H      0.779750000000     0.972990000000     0.924640000000     0.0441243  
H322     H      0.680710000000     0.958240000000     0.028680000000     0.0343563  
H323     H      0.822820000000     0.069730000000     0.977790000000     0.0303652  
H324     H      0.782970000000     0.044430000000     0.031210000000     0.0444998  
H325     H      0.732850000000     0.002740000000     0.049320000000     0.0448798  
H326     H      0.707060000000     0.957380000000     0.949950000000     0.0511908  
H327     H      0.853110000000     0.978750000000     0.920740000000     0.0406223  
H328     H      0.661980000000     0.999860000000     0.055350000000     0.0389628  
H329     H      0.810760000000     0.999560000000     0.034050000000     0.0542176  
H330     H      0.721440000000     0.000540000000     0.922620000000     0.0451107  
H331     H      0.851500000000     0.057360000000     0.019910000000     0.0417746  
H332     H      0.649600000000     0.995420000000     0.930670000000     0.0381289  
H333     H      0.805710000000     0.951620000000     0.964630000000     0.0528432  
H334     H      0.709930000000     0.044060000000     0.025190000000     0.0519681  
H335     H      0.669680000000     0.040060000000     0.950530000000     0.035602   
H336     H      0.827220000000     0.024100000000     0.915600000000     0.0305314  
H337     H      0.280830000000     0.923340000000     0.998870000000     0.0442909  
H338     H      0.180360000000     0.043300000000     0.030410000000     0.0303572  
H339     H      0.325280000000     0.037820000000     0.976690000000     0.0303013  
H340     H      0.274710000000     0.048640000000     0.027540000000     0.0448161  
H341     H      0.233120000000     0.047770000000     0.981070000000     0.0449497  
H342     H      0.220380000000     0.926000000000     0.020480000000     0.0445028  
H343     H      0.352600000000     0.928560000000     0.996880000000     0.0400954  
H344     H      0.161180000000     0.054010000000     0.982470000000     0.0408461  
H345     H      0.298430000000     0.016120000000     0.060180000000     0.0536868  
H346     H      0.202570000000     0.938930000000     0.972240000000     0.0518548  
H347     H      0.346920000000     0.051450000000     0.022800000000     0.0407364  
H348     H      0.172280000000     0.965090000000     0.053910000000     0.0329804  
H349     H      0.301290000000     0.940090000000     0.044760000000     0.0518723  
H350     H      0.209320000000     0.013600000000     0.950190000000     0.0541265  
H351     H      0.148680000000     0.934150000000     0.018220000000     0.0397871  
H352     H      0.328710000000     0.957490000000     0.959750000000     0.0330305  
H353     H      0.049320000000     0.947570000000     0.716590000000     0.0447224  
H354     H      0.080820000000     0.032140000000     0.820710000000     0.0324792  
H355     H      0.969320000000     0.034650000000     0.675860000000     0.0330433  
H356     H      0.018010000000     0.072380000000     0.711890000000     0.0447042  
H357     H      0.050040000000     0.070010000000     0.769350000000     0.0447018  
H358     H      0.009290000000     0.948590000000     0.764640000000     0.0449519  
H359     H      0.028890000000     0.941700000000     0.646430000000     0.0405527  
H360     H      0.047640000000     0.067110000000     0.842030000000     0.0397418  
H361     H      0.057470000000     0.054400000000     0.681910000000     0.0524523  
H362     H      0.976770000000     0.983790000000     0.784660000000     0.0546575  
H363     H      0.998410000000     0.063730000000     0.642840000000     0.0401105  
H364     H      0.055360000000     0.956690000000     0.818760000000     0.0298784  
H365     H      0.074780000000     0.979590000000     0.684790000000     0.0539604  
H366     H      0.001410000000     0.061060000000     0.788090000000     0.0526599  
H367     H      0.007220000000     0.948030000000     0.837520000000     0.0404606  
H368     H      0.988670000000     0.955200000000     0.677420000000     0.0300653  
H369     H      0.926960000000     0.999480000000     0.270230000000     0.0445671  
H370     H      0.045340000000     0.037830000000     0.167490000000     0.0304441  
H371     H      0.041370000000     0.975320000000     0.314570000000     0.0305288  
H372     H      0.051820000000     0.028680000000     0.267120000000     0.0447816  
H373     H      0.050600000000     0.988480000000     0.219450000000     0.0448775  
H374     H      0.929750000000     0.030270000000     0.212560000000     0.0445034  
H375     H      0.931800000000     0.990470000000     0.341630000000     0.0400246  
H376     H      0.053460000000     0.990280000000     0.146540000000     0.0408037  
H377     H      0.019390000000     0.059870000000     0.292800000000     0.0537969  
H378     H      0.940190000000     0.982610000000     0.191920000000     0.0521673  
H379     H      0.053680000000     0.019850000000     0.339770000000     0.0406905  
H380     H      0.968970000000     0.064200000000     0.164540000000     0.0328049  
H381     H      0.943100000000     0.043360000000     0.294990000000     0.0523879  
H382     H      0.015530000000     0.957980000000     0.196470000000     0.0539714  
H383     H      0.935250000000     0.031640000000     0.140400000000     0.0396643  
H384     H      0.962120000000     0.956800000000     0.314670000000     0.0327288  
N1       N      0.526290000000     0.485420000000     0.857280000000    -0.164592   
N2       N      0.477570000000     0.518270000000     0.655890000000    -0.164963   
N3       N      0.520550000000     0.510770000000     0.153190000000    -0.165147   
N4       N      0.489520000000     0.494010000000     0.359200000000    -0.164977   
N5       N      0.502780000000     0.650510000000     0.484880000000    -0.165397   
N6       N      0.485790000000     0.858150000000     0.504970000000    -0.165178   
N7       N      0.478760000000     0.355450000000     0.503930000000    -0.166061   
N8       N      0.518170000000     0.152270000000     0.529140000000    -0.165929   
N9       N      0.513770000000     0.650330000000     0.997560000000    -0.166361   
N10      N      0.517110000000     0.850410000000     0.025150000000    -0.166504   
N11      N      0.507020000000     0.145920000000     0.006320000000    -0.164671   
N12      N      0.516230000000     0.351750000000     0.018420000000    -0.165175   
N13      N      0.482890000000     0.989450000000     0.863030000000    -0.165436   
N14      N      0.486800000000     0.995590000000     0.661270000000    -0.166043   
N15      N      0.497970000000     0.004200000000     0.157340000000    -0.164639   
N16      N      0.488360000000     0.021500000000     0.364360000000    -0.165095   
N17      N      0.838270000000     0.489790000000     0.499280000000    -0.165687   
N18      N      0.634250000000     0.494100000000     0.523700000000    -0.165974   
N19      N      0.339380000000     0.508560000000     0.511220000000    -0.165418   
N20      N      0.133920000000     0.504340000000     0.495450000000    -0.165503   
N21      N      0.667240000000     0.508180000000     0.006620000000    -0.165749   
N22      N      0.868610000000     0.516540000000     0.023770000000    -0.165697   
N23      N      0.370130000000     0.503880000000     0.000980000000    -0.166656   
N24      N      0.163020000000     0.503440000000     0.992810000000    -0.165711   
N25      N      0.009300000000     0.490050000000     0.860580000000    -0.164512   
N26      N      0.980830000000     0.507340000000     0.652380000000    -0.164408   
N27      N      0.980670000000     0.481990000000     0.355230000000    -0.165268   
N28      N      0.033300000000     0.521290000000     0.156330000000    -0.165419   
N29      N      0.007530000000     0.850790000000     0.476160000000    -0.165063   
N30      N      0.978360000000     0.644860000000     0.502400000000    -0.165292   
N31      N      0.971500000000     0.143800000000     0.480920000000    -0.165242   
N32      N      0.999490000000     0.347140000000     0.520160000000    -0.165569   
N33      N      0.642090000000     0.992960000000     0.512280000000    -0.166141   
N34      N      0.849990000000     0.978090000000     0.511970000000    -0.165287   
N35      N      0.143120000000     0.010360000000     0.497980000000    -0.164942   
N36      N      0.346020000000     0.015730000000     0.517450000000    -0.164919   
N37      N      0.986320000000     0.860040000000     0.995230000000    -0.165619   
N38      N      0.020850000000     0.658230000000     0.998050000000    -0.16593    
N39      N      0.008370000000     0.155990000000     0.997820000000    -0.166817   
N40      N      0.006070000000     0.361260000000     0.023970000000    -0.166412   
N41      N      0.650230000000     0.999400000000     0.993410000000    -0.165783   
N42      N      0.856550000000     0.018180000000     0.970020000000    -0.165047   
N43      N      0.150530000000     0.995530000000     0.004120000000    -0.165355   
N44      N      0.354060000000     0.990980000000     0.005720000000    -0.165475   
N45      N      0.029140000000     0.006960000000     0.843970000000    -0.165425   
N46      N      0.009160000000     0.001550000000     0.641380000000    -0.165175   
N47      N      0.995550000000     0.014040000000     0.139220000000    -0.165654   
N48      N      0.993690000000     0.001210000000     0.344660000000    -0.165437   
O1       O      0.003320000000     0.007540000000     0.990470000000    -0.36973    
O2       O      0.915960000000     0.992240000000     0.951590000000    -0.301526   
O3       O      0.971190000000     0.029040000000     0.078500000000    -0.306925   
O4       O      0.011170000000     0.916980000000     0.020490000000    -0.304954   
O5       O      0.912860000000     0.032150000000     0.002860000000    -0.309119   
O6       O      0.977220000000     0.919150000000     0.965000000000    -0.30581    
O7       O      0.022510000000     0.989700000000     0.082720000000    -0.305804   
O8       O      0.096250000000     0.027310000000     0.981280000000    -0.3058     
O9       O      0.979610000000     0.097500000000     0.013000000000    -0.306696   
O10      O      0.088720000000     0.973260000000     0.016590000000    -0.305606   
O11      O      0.033160000000     0.097720000000     0.976390000000    -0.307466   
O12      O      0.038280000000     0.033420000000     0.905080000000    -0.30456    
O13      O      0.997110000000     0.983630000000     0.898030000000    -0.305368   
O14      O      0.995600000000     0.997990000000     0.493400000000    -0.371267   
O15      O      0.907710000000     0.007230000000     0.529940000000    -0.304238   
O16      O      0.966500000000     0.984130000000     0.403500000000    -0.306836   
O17      O      0.006220000000     0.088560000000     0.465400000000    -0.30496    
O18      O      0.906290000000     0.969560000000     0.476890000000    -0.307041   
O19      O      0.960930000000     0.085100000000     0.511830000000    -0.305149   
O20      O      0.022030000000     0.017640000000     0.403440000000    -0.303955   
O21      O      0.086420000000     0.978390000000     0.513470000000    -0.304163   
O22      O      0.978570000000     0.909560000000     0.461400000000    -0.305162   
O23      O      0.083430000000     0.032140000000     0.476900000000    -0.304564   
O24      O      0.023420000000     0.907550000000     0.508290000000    -0.305989   
O25      O      0.020130000000     0.971210000000     0.582320000000    -0.303685   
O26      O      0.984870000000     0.025800000000     0.583770000000    -0.306392   
O27      O      0.015810000000     0.509270000000     0.008530000000    -0.367561   
O28      O      0.036950000000     0.419370000000     0.036520000000    -0.30681    
O29      O      0.923430000000     0.489050000000     0.997580000000    -0.306976   
O30      O      0.003510000000     0.538700000000     0.098770000000    -0.305994   
O31      O      0.984870000000     0.419200000000     0.998030000000    -0.307916   
O32      O      0.048830000000     0.492330000000     0.097490000000    -0.303926   
O33      O      0.929610000000     0.540780000000     0.036630000000    -0.30492    
O34      O      0.035030000000     0.597530000000     0.973050000000    -0.305247   
O35      O      0.984820000000     0.478100000000     0.922360000000    -0.303214   
O36      O      0.002370000000     0.601940000000     0.029050000000    -0.307534   
O37      O      0.033460000000     0.520430000000     0.915370000000    -0.305817   
O38      O      0.103810000000     0.530940000000     0.978170000000    -0.304985   
O39      O      0.106320000000     0.481780000000     0.020740000000    -0.306047   
O40      O      0.986140000000     0.495310000000     0.503860000000    -0.367122   
O41      O      0.969300000000     0.405180000000     0.535480000000    -0.304736   
O42      O      0.006120000000     0.464760000000     0.415060000000    -0.305333   
O43      O      0.896550000000     0.516690000000     0.481230000000    -0.306731   
O44      O      0.014930000000     0.404690000000     0.489440000000    -0.306833   
O45      O      0.896540000000     0.466300000000     0.522430000000    -0.304182   
O46      O      0.962000000000     0.512240000000     0.412370000000    -0.304936   
O47      O      0.004010000000     0.587240000000     0.525120000000    -0.306575   
O48      O      0.075920000000     0.475380000000     0.479760000000    -0.307412   
O49      O      0.961100000000     0.585200000000     0.476600000000    -0.305203   
O50      O      0.075780000000     0.525640000000     0.521090000000    -0.304364   
O51      O      0.008920000000     0.521970000000     0.592980000000    -0.303564   
O52      O      0.959530000000     0.479860000000     0.594660000000    -0.303015   
O53      O      0.502570000000     0.997490000000     0.009480000000    -0.370976   
O54      O      0.414120000000     0.964230000000     0.993890000000    -0.306962   
O55      O      0.473400000000     0.020790000000     0.096910000000    -0.302819   
O56      O      0.537310000000     0.912890000000     0.039160000000    -0.303679   
O57      O      0.410750000000     0.021680000000     0.023880000000    -0.305863   
O58      O      0.486440000000     0.903890000000     0.999790000000    -0.308536   
O59      O      0.528880000000     0.987050000000     0.100290000000    -0.30448    
O60      O      0.588850000000     0.013800000000     0.970840000000    -0.304042   
O61      O      0.478680000000     0.088770000000     0.027160000000    -0.303413   
O62      O      0.595560000000     0.986840000000     0.029800000000    -0.305543   
O63      O      0.527950000000     0.085950000000     0.984860000000    -0.30486    
O64      O      0.508790000000     0.019620000000     0.917180000000    -0.305333   
O65      O      0.477910000000     0.962860000000     0.924440000000    -0.306389   
O66      O      0.494070000000     0.006510000000     0.512800000000    -0.368559   
O67      O      0.529690000000     0.094320000000     0.497050000000    -0.305167   
O68      O      0.406260000000     0.039920000000     0.534050000000    -0.303454   
O69      O      0.464290000000     0.994870000000     0.421500000000    -0.302663   
O70      O      0.483920000000     0.096620000000     0.543020000000    -0.308118   
O71      O      0.516700000000     0.032960000000     0.423980000000    -0.307617   
O72      O      0.402480000000     0.987820000000     0.495180000000    -0.30488    
O73      O      0.511390000000     0.914700000000     0.530020000000    -0.307326   
O74      O      0.470870000000     0.026590000000     0.603840000000    -0.305959   
O75      O      0.466720000000     0.918880000000     0.483090000000    -0.303668   
O76      O      0.510040000000     0.974970000000     0.601880000000    -0.307886   
O77      O      0.582450000000     0.977990000000     0.538810000000    -0.304688   
O78      O      0.585440000000     0.018000000000     0.487510000000    -0.306745   
O79      O      0.518790000000     0.500850000000     0.004820000000    -0.366603   
O80      O      0.428250000000     0.477250000000     0.981380000000    -0.30571    
O81      O      0.496340000000     0.528400000000     0.093110000000    -0.306741   
O82      O      0.544100000000     0.411260000000     0.031670000000    -0.304702   
O83      O      0.428440000000     0.525630000000     0.024850000000    -0.307732   
O84      O      0.492370000000     0.408850000000     0.992620000000    -0.304714   
O85      O      0.543010000000     0.483350000000     0.095850000000    -0.303535   
O86      O      0.607870000000     0.528820000000     0.984170000000    -0.306801   
O87      O      0.493390000000     0.591740000000     0.022360000000    -0.308956   
O88      O      0.610120000000     0.479800000000     0.026810000000    -0.305015   
O89      O      0.539190000000     0.591850000000     0.976540000000    -0.305471   
O90      O      0.543510000000     0.517070000000     0.914110000000    -0.303606   
O91      O      0.499970000000     0.468850000000     0.916980000000    -0.303264   
O92      O      0.487310000000     0.504180000000     0.507720000000    -0.369239   
O93      O      0.397520000000     0.532030000000     0.487460000000    -0.303629   
O94      O      0.462580000000     0.413940000000     0.532840000000    -0.305954   
O95      O      0.515880000000     0.480560000000     0.419560000000    -0.305435   
O96      O      0.397870000000     0.482130000000     0.529250000000    -0.306735   
O97      O      0.462470000000     0.517270000000     0.416310000000    -0.303857   
O98      O      0.505150000000     0.413550000000     0.483940000000    -0.308496   
O99      O      0.576010000000     0.524350000000     0.535650000000    -0.307357   
O100     O      0.462210000000     0.486360000000     0.598660000000    -0.304746   
O101     O      0.577310000000     0.473420000000     0.495230000000    -0.305867   
O102     O      0.503340000000     0.536550000000     0.596480000000    -0.30494    
O103     O      0.515920000000     0.594750000000     0.519830000000    -0.306805   
O104     O      0.471010000000     0.592580000000     0.473080000000    -0.305314   
Zn1      Zn     0.973920000000     0.976700000000     0.952080000000     0.447073   
Zn2      Zn     0.967670000000     0.040110000000     0.020460000000     0.453918   
Zn3      Zn     0.030590000000     0.972610000000     0.026420000000     0.449757   
Zn4      Zn     0.041450000000     0.040820000000     0.964070000000     0.450756   
Zn5      Zn     0.963180000000     0.028440000000     0.528880000000     0.450174   
Zn6      Zn     0.962320000000     0.966630000000     0.459710000000     0.45238    
Zn7      Zn     0.026530000000     0.033120000000     0.460930000000     0.449165   
Zn8      Zn     0.029880000000     0.964170000000     0.523770000000     0.449343   
Zn9      Zn     0.050980000000     0.476610000000     0.039940000000     0.44957    
Zn10     Zn     0.978230000000     0.475360000000     0.981840000000     0.449772   
Zn11     Zn     0.988340000000     0.546400000000     0.042180000000     0.450317   
Zn12     Zn     0.045840000000     0.539190000000     0.970020000000     0.448491   
Zn13     Zn     0.953590000000     0.462390000000     0.537960000000     0.446529   
Zn14     Zn     0.019540000000     0.461000000000     0.472760000000     0.451523   
Zn15     Zn     0.953070000000     0.526890000000     0.469320000000     0.449303   
Zn16     Zn     0.018380000000     0.530950000000     0.534970000000     0.448739   
Zn17     Zn     0.471580000000     0.957910000000     0.983060000000     0.454383   
Zn18     Zn     0.467110000000     0.031530000000     0.038470000000     0.448013   
Zn19     Zn     0.540290000000     0.972320000000     0.043980000000     0.449327   
Zn20     Zn     0.531350000000     0.028340000000     0.971370000000     0.449057   
Zn21     Zn     0.530260000000     0.037050000000     0.481060000000     0.451329   
Zn22     Zn     0.464230000000     0.041610000000     0.546820000000     0.450198   
Zn23     Zn     0.458150000000     0.977630000000     0.478670000000     0.446216   
Zn24     Zn     0.524030000000     0.970010000000     0.544920000000     0.452292   
Zn25     Zn     0.485660000000     0.465000000000     0.974700000000     0.447095   
Zn26     Zn     0.485240000000     0.535220000000     0.035570000000     0.453664   
Zn27     Zn     0.553140000000     0.469470000000     0.038600000000     0.44649    
Zn28     Zn     0.550960000000     0.533960000000     0.970670000000     0.44861    
Zn29     Zn     0.454850000000     0.535620000000     0.472450000000     0.447737   
Zn30     Zn     0.454300000000     0.472020000000     0.541470000000     0.450228   
Zn31     Zn     0.521060000000     0.469580000000     0.477500000000     0.452128   
Zn32     Zn     0.519330000000     0.539200000000     0.539290000000     0.451274   


