data_structure

_audit_creation_method RASPA-1.0
_audit_creation_date 2023-5-25
_audit_author_name 'Poobodin Mano'

_cell_length_a    33.952
_cell_length_b    34.1142
_cell_length_c    33.9812
_cell_angle_alpha 90
_cell_angle_beta  90
_cell_angle_gamma 90
_cell_volume      39358.6

_symmetry_cell_setting          triclinic
_symmetry_space_group_name_Hall 'P 1'
_symmetry_space_group_name_H-M  'P 1'
_symmetry_Int_Tables_number     1

_symmetry_equiv_pos_as_xyz 'x,y,z'

loop_
_atom_site_label
_atom_site_type_symbol
_atom_site_fract_x
_atom_site_fract_y
_atom_site_fract_z
_atom_site_charge
C1       C      0.994180000000     0.011500000000     0.113930000000     0.36171    
C2       C      0.114910000000     0.003940000000     0.013090000000     0.364671   
C3       C      0.002920000000     0.896970000000     0.016530000000     0.364842   
C4       C      0.017780000000     0.996070000000     0.896290000000     0.3612     
C5       C      0.008900000000     0.113460000000     0.000860000000     0.364621   
C6       C      0.897280000000     0.008080000000     0.990410000000     0.361615   
C7       C      0.127640000000     0.004710000000     0.495600000000     0.362736   
C8       C      0.005600000000     0.008210000000     0.397970000000     0.363108   
C9       C      0.015190000000     0.897060000000     0.500460000000     0.3662     
C10      C      0.911520000000     0.009820000000     0.522700000000     0.363663   
C11      C      0.021580000000     0.116320000000     0.505750000000     0.364249   
C12      C      0.030990000000     0.001890000000     0.614610000000     0.360947   
C13      C      0.983070000000     0.396620000000     0.000350000000     0.361088   
C14      C      0.994150000000     0.504250000000     0.109890000000     0.364972   
C15      C      0.100820000000     0.496210000000     0.999450000000     0.363718   
C16      C      0.996400000000     0.612760000000     0.003680000000     0.361448   
C17      C      0.883260000000     0.509300000000     0.997660000000     0.363967   
C18      C      0.994050000000     0.508280000000     0.890990000000     0.365871   
C19      C      0.012820000000     0.396330000000     0.499530000000     0.360853   
C20      C      0.007850000000     0.511460000000     0.395010000000     0.366528   
C21      C      0.902660000000     0.494150000000     0.511500000000     0.363777   
C22      C      0.999250000000     0.613260000000     0.505720000000     0.362679   
C23      C      0.120060000000     0.508830000000     0.496620000000     0.365909   
C24      C      0.025200000000     0.505770000000     0.611060000000     0.363698   
C25      C      0.396460000000     0.000150000000     0.008480000000     0.362586   
C26      C      0.512040000000     0.988310000000     0.114790000000     0.364994   
C27      C      0.505480000000     0.888660000000     0.008650000000     0.362045   
C28      C      0.613320000000     0.001050000000     0.992080000000     0.36246    
C29      C      0.507420000000     0.104490000000     0.019710000000     0.364669   
C30      C      0.495210000000     0.001330000000     0.897700000000     0.36358    
C31      C      0.411960000000     0.013010000000     0.516270000000     0.361366   
C32      C      0.516720000000     0.015910000000     0.397540000000     0.361455   
C33      C      0.520220000000     0.122890000000     0.501030000000     0.365921   
C34      C      0.629290000000     0.013440000000     0.506830000000     0.365429   
C35      C      0.520960000000     0.905350000000     0.497950000000     0.366211   
C36      C      0.525080000000     0.012620000000     0.614750000000     0.361108   
C37      C      0.385210000000     0.491750000000     0.016020000000     0.363415   
C38      C      0.491560000000     0.386460000000     0.013680000000     0.366146   
C39      C      0.484760000000     0.497130000000     0.902480000000     0.367031   
C40      C      0.601330000000     0.488320000000     0.002960000000     0.364478   
C41      C      0.500890000000     0.500340000000     0.120360000000     0.365219   
C42      C      0.498380000000     0.603260000000     0.008570000000     0.363307   
C43      C      0.403320000000     0.509250000000     0.522310000000     0.363451   
C44      C      0.523320000000     0.405640000000     0.509280000000     0.364209   
C45      C      0.499010000000     0.513760000000     0.404610000000     0.36214    
C46      C      0.620220000000     0.521710000000     0.507720000000     0.361156   
C47      C      0.515690000000     0.509990000000     0.621010000000     0.364396   
C48      C      0.508450000000     0.623320000000     0.513980000000     0.365341   
C49      C      0.531120000000     0.542250000000     0.684350000000     0.00900266 
C50      C      0.488660000000     0.463890000000     0.837810000000     0.0116833  
C51      C      0.468230000000     0.535370000000     0.842960000000     0.0540291  
C52      C      0.515360000000     0.473710000000     0.803100000000    -0.103657   
C53      C      0.503400000000     0.549530000000     0.719240000000    -0.100189   
C54      C      0.494820000000     0.545620000000     0.807740000000    -0.115605   
C55      C      0.497640000000     0.511740000000     0.741940000000     0.0168726  
C56      C      0.500830000000     0.509980000000     0.781840000000     0.0244919  
C57      C      0.511270000000     0.470990000000     0.682290000000     0.00943206 
C58      C      0.484020000000     0.477150000000     0.717440000000    -0.1        
C59      C      0.472230000000     0.544050000000     0.344280000000     0.00935632 
C60      C      0.498210000000     0.467840000000     0.185240000000     0.0115743  
C61      C      0.517270000000     0.539800000000     0.179020000000     0.0544575  
C62      C      0.474560000000     0.477170000000     0.222260000000    -0.103868   
C63      C      0.492710000000     0.552770000000     0.305000000000    -0.100154   
C64      C      0.492890000000     0.549410000000     0.216020000000    -0.115847   
C65      C      0.497160000000     0.515240000000     0.281660000000     0.0167199  
C66      C      0.490120000000     0.513670000000     0.242250000000     0.0246127  
C67      C      0.498250000000     0.474700000000     0.343440000000     0.00895331 
C68      C      0.517190000000     0.481860000000     0.303290000000    -0.0995407  
C69      C      0.535890000000     0.687400000000     0.535330000000     0.0086602  
C70      C      0.502470000000     0.845740000000     0.460740000000     0.0105526  
C71      C      0.549960000000     0.842010000000     0.518410000000     0.0547125  
C72      C      0.483700000000     0.806760000000     0.473240000000    -0.10382    
C73      C      0.551860000000     0.719770000000     0.508600000000    -0.0998899  
C74      C      0.530080000000     0.804070000000     0.531870000000    -0.115541   
C75      C      0.517900000000     0.742940000000     0.491120000000     0.0162886  
C76      C      0.512180000000     0.782230000000     0.497350000000     0.0248952  
C77      C      0.474260000000     0.684290000000     0.493860000000     0.00812854 
C78      C      0.489550000000     0.717600000000     0.467720000000    -0.0999038  
C79      C      0.504420000000     0.340460000000     0.535230000000     0.00911244 
C80      C      0.537630000000     0.182690000000     0.463580000000     0.0101891  
C81      C      0.495070000000     0.186610000000     0.525160000000     0.0545858  
C82      C      0.558630000000     0.220780000000     0.475300000000    -0.103934   
C83      C      0.489050000000     0.305530000000     0.511890000000    -0.100218   
C84      C      0.517070000000     0.223940000000     0.537080000000    -0.115376   
C85      C      0.523440000000     0.284070000000     0.493370000000     0.0166437  
C86      C      0.532130000000     0.245620000000     0.501130000000     0.0248645  
C87      C      0.561040000000     0.347210000000     0.487410000000     0.00750072 
C88      C      0.547670000000     0.309770000000     0.465990000000    -0.0998492  
C89      C      0.472460000000     0.825770000000     0.992970000000     0.00876734 
C90      C      0.539500000000     0.662300000000     0.017880000000     0.0103608  
C91      C      0.471670000000     0.667240000000     0.986510000000     0.0540199  
C92      C      0.532840000000     0.701220000000     0.039320000000    -0.103875   
C93      C      0.489080000000     0.787660000000     0.976210000000    -0.100125   
C94      C      0.465220000000     0.706190000000     0.008160000000    -0.115106   
C95      C      0.511150000000     0.765270000000     0.007880000000     0.0167252  
C96      C      0.504020000000     0.726660000000     0.016720000000     0.0244443  
C97      C      0.528410000000     0.828340000000     0.041940000000     0.0076684  
C98      C      0.544030000000     0.788970000000     0.026700000000    -0.0997998  
C99      C      0.532970000000     0.169190000000     0.998630000000     0.00968302 
C100     C      0.461960000000     0.325510000000     0.039960000000     0.0100645  
C101     C      0.515620000000     0.323120000000     0.987580000000     0.0543448  
C102     C      0.480080000000     0.289720000000     0.060430000000    -0.103803   
C103     C      0.508120000000     0.204680000000     0.987530000000    -0.100466   
C104     C      0.533900000000     0.288090000000     0.009020000000    -0.115249   
C105     C      0.495370000000     0.226060000000     0.024560000000     0.0169437  
C106     C      0.502610000000     0.265060000000     0.030910000000     0.0247659  
C107     C      0.495290000000     0.162480000000     0.062170000000     0.00805205 
C108     C      0.472530000000     0.200400000000     0.053190000000    -0.0998741  
C109     C      0.518350000000     0.047230000000     0.678590000000     0.00906034 
C110     C      0.479160000000     0.968330000000     0.834860000000     0.0111801  
C111     C      0.495470000000     0.040920000000     0.836590000000     0.0537059  
C112     C      0.505150000000     0.962900000000     0.798330000000    -0.103395   
C113     C      0.490780000000     0.037110000000     0.712620000000    -0.0999082  
C114     C      0.520170000000     0.036280000000     0.799140000000    -0.11469    
C115     C      0.505870000000     0.001750000000     0.735160000000     0.0162694  
C116     C      0.507650000000     0.000830000000     0.775260000000     0.0238863  
C117     C      0.542170000000     0.977300000000     0.676150000000     0.00858646 
C118     C      0.514390000000     0.966050000000     0.709970000000    -0.0996035  
C119     C      0.550420000000     0.030270000000     0.334520000000     0.00843822 
C120     C      0.477290000000     0.986750000000     0.178810000000     0.0119463  
C121     C      0.550210000000     0.971030000000     0.174390000000     0.0538178  
C122     C      0.484550000000     0.011730000000     0.215290000000    -0.104061   
C123     C      0.559240000000     0.001780000000     0.300710000000    -0.100453   
C124     C      0.557870000000     0.995180000000     0.211960000000    -0.114962   
C125     C      0.522060000000     0.994770000000     0.277060000000     0.0167544  
C126     C      0.521020000000     0.998020000000     0.237050000000     0.0244246  
C127     C      0.479170000000     0.009330000000     0.335210000000     0.00821292 
C128     C      0.487040000000     0.981120000000     0.301190000000    -0.099341   
C129     C      0.682490000000     0.537980000000     0.542190000000     0.00812727 
C130     C      0.839610000000     0.491220000000     0.475400000000     0.0121203  
C131     C      0.842330000000     0.476330000000     0.548480000000     0.0539757  
C132     C      0.803040000000     0.516360000000     0.481300000000    -0.103586   
C133     C      0.715390000000     0.509040000000     0.553080000000    -0.0998005  
C134     C      0.804210000000     0.500250000000     0.554800000000    -0.115073   
C135     C      0.740100000000     0.500430000000     0.516970000000     0.0163138  
C136     C      0.780210000000     0.502950000000     0.517160000000     0.0240943  
C137     C      0.683590000000     0.514920000000     0.471750000000     0.00875371 
C138     C      0.716880000000     0.486350000000     0.481490000000    -0.0995536  
C139     C      0.340170000000     0.545400000000     0.522670000000     0.0097424  
C140     C      0.182310000000     0.474270000000     0.481630000000     0.0110525  
C141     C      0.182580000000     0.545700000000     0.502990000000     0.0537787  
C142     C      0.217280000000     0.465570000000     0.508840000000    -0.104058   
C143     C      0.304240000000     0.538030000000     0.496820000000    -0.100156   
C144     C      0.218740000000     0.537650000000     0.528720000000    -0.114917   
C145     C      0.281680000000     0.502390000000     0.511110000000     0.0167236  
C146     C      0.241650000000     0.502300000000     0.514300000000     0.0244281  
C147     C      0.342480000000     0.474040000000     0.541650000000     0.00885389 
C148     C      0.306180000000     0.465500000000     0.516010000000    -0.100039   
C149     C      0.822160000000     0.524940000000     0.961230000000     0.00863153 
C150     C      0.666260000000     0.491350000000     0.035740000000     0.0116015  
C151     C      0.660330000000     0.471580000000     0.963760000000     0.0539433  
C152     C      0.701760000000     0.516830000000     0.025870000000    -0.103718   
C153     C      0.786610000000     0.498570000000     0.952160000000    -0.100288   
C154     C      0.696720000000     0.496740000000     0.953750000000    -0.115685   
C155     C      0.761970000000     0.493790000000     0.988990000000     0.0170809  
C156     C      0.722610000000     0.501330000000     0.989720000000     0.0247254  
C157     C      0.819730000000     0.504940000000     0.032880000000     0.00932544 
C158     C      0.784270000000     0.478840000000     0.024530000000    -0.100055   
C159     C      0.161570000000     0.509150000000     0.036530000000     0.00952663 
C160     C      0.324510000000     0.488900000000     0.976420000000     0.0103287  
C161     C      0.324850000000     0.468290000000     0.048390000000     0.0551289  
C162     C      0.282180000000     0.503670000000     0.980720000000    -0.10328    
C163     C      0.195070000000     0.481860000000     0.048610000000    -0.100684   
C164     C      0.283360000000     0.485310000000     0.053550000000    -0.115995   
C165     C      0.221780000000     0.476280000000     0.013550000000     0.0169891  
C166     C      0.261040000000     0.484610000000     0.015000000000     0.024725   
C167     C      0.164660000000     0.483510000000     0.966490000000     0.00808795 
C168     C      0.201430000000     0.459710000000     0.977440000000    -0.0997045  
C169     C      0.048120000000     0.540570000000     0.670770000000     0.00870456 
C170     C      0.002200000000     0.473520000000     0.827710000000     0.0125454  
C171     C      0.985830000000     0.546320000000     0.829490000000     0.0535113  
C172     C      0.032780000000     0.481000000000     0.795840000000    -0.104157   
C173     C      0.023040000000     0.551530000000     0.706710000000    -0.0995247  
C174     C      0.015640000000     0.553690000000     0.795970000000    -0.115436   
C175     C      0.016710000000     0.515660000000     0.732230000000     0.0164729  
C176     C      0.021360000000     0.516650000000     0.772010000000     0.024829   
C177     C      0.025220000000     0.470440000000     0.674780000000     0.00930566 
C178     C      0.000430000000     0.480030000000     0.710980000000    -0.0988706  
C179     C      0.034010000000     0.507310000000     0.170590000000     0.00919289 
C180     C      0.972190000000     0.533540000000     0.335850000000     0.0114729  
C181     C      0.042860000000     0.509460000000     0.331030000000     0.0530888  
C182     C      0.961180000000     0.510760000000     0.298740000000    -0.103971   
C183     C      0.028880000000     0.529690000000     0.209200000000    -0.0999558  
C184     C      0.032980000000     0.489680000000     0.291630000000    -0.114139   
C185     C      0.994600000000     0.513620000000     0.232780000000     0.0168624  
C186     C      0.996830000000     0.507420000000     0.272320000000     0.0237318  
C187     C      0.962440000000     0.486830000000     0.172780000000     0.0095608  
C188     C      0.956160000000     0.510750000000     0.210380000000    -0.100542   
C189     C      0.022430000000     0.676690000000     0.532450000000     0.00994508 
C190     C      0.989130000000     0.838160000000     0.466650000000     0.00926847 
C191     C      0.040200000000     0.831990000000     0.521080000000     0.0540387  
C192     C      0.967690000000     0.801610000000     0.482030000000    -0.103109   
C193     C      0.035720000000     0.712400000000     0.509130000000    -0.100863   
C194     C      0.017880000000     0.796270000000     0.536920000000    -0.114141   
C195     C      0.000010000000     0.735920000000     0.496580000000     0.0178249  
C196     C      0.996000000000     0.775220000000     0.504160000000     0.0233481  
C197     C      0.959940000000     0.673350000000     0.492450000000     0.00756288 
C198     C      0.970670000000     0.712400000000     0.472240000000    -0.100142   
C199     C      0.993570000000     0.333220000000     0.529770000000     0.00690574 
C200     C      0.038710000000     0.177270000000     0.470260000000     0.00960404 
C201     C      0.997260000000     0.178930000000     0.533340000000     0.0526002  
C202     C      0.056700000000     0.216770000000     0.481960000000    -0.10408    
C203     C      0.976280000000     0.294930000000     0.513890000000    -0.100341   
C204     C      0.015670000000     0.218990000000     0.542820000000    -0.114266   
C205     C      0.007960000000     0.273160000000     0.491440000000     0.0183038  
C206     C      0.026630000000     0.240060000000     0.505120000000     0.0255428  
C207     C      0.039160000000     0.335420000000     0.469960000000     0.00702454 
C208     C      0.021180000000     0.296600000000     0.455950000000    -0.0998405  
C209     C      0.853320000000     0.044750000000     0.548620000000     0.00928514 
C210     C      0.691900000000     0.977750000000     0.516340000000     0.0116214  
C211     C      0.691320000000     0.049650000000     0.495890000000     0.0541174  
C212     C      0.726000000000     0.985980000000     0.544340000000    -0.103662   
C213     C      0.815040000000     0.055230000000     0.527140000000    -0.100019   
C214     C      0.725870000000     0.057860000000     0.524140000000    -0.115859   
C215     C      0.789180000000     0.019230000000     0.523800000000     0.0167273  
C216     C      0.749630000000     0.020810000000     0.530200000000     0.0245448  
C217     C      0.847990000000     0.974520000000     0.526020000000     0.00937153 
C218     C      0.808780000000     0.983450000000     0.505900000000    -0.0993961  
C219     C      0.349980000000     0.044310000000     0.538270000000     0.00894437 
C220     C      0.191230000000     0.969420000000     0.499950000000     0.0113464  
C221     C      0.188500000000     0.040680000000     0.478360000000     0.0538829  
C222     C      0.227040000000     0.978270000000     0.525660000000    -0.103125   
C223     C      0.312700000000     0.052120000000     0.513910000000    -0.0996425  
C224     C      0.224440000000     0.050050000000     0.504420000000    -0.11528    
C225     C      0.289450000000     0.014510000000     0.508700000000     0.0162583  
C226     C      0.249340000000     0.013720000000     0.510580000000     0.023979   
C227     C      0.350680000000     0.973750000000     0.516410000000     0.00937203 
C228     C      0.312840000000     0.980010000000     0.492910000000    -0.0993153  
C229     C      0.963540000000     0.675660000000     0.989390000000     0.00891948 
C230     C      0.038570000000     0.833700000000     0.018800000000     0.0108941  
C231     C      0.966660000000     0.838330000000     0.038860000000     0.0542893  
C232     C      0.030650000000     0.794390000000     0.998710000000    -0.102954   
C233     C      0.955530000000     0.711310000000     0.015580000000    -0.10021    
C234     C      0.958010000000     0.799400000000     0.017820000000    -0.115475   
C235     C      0.993180000000     0.734510000000     0.020630000000     0.0166806  
C236     C      0.994660000000     0.774170000000     0.015670000000     0.0239759  
C237     C      0.034560000000     0.674000000000     0.011950000000     0.00849114 
C238     C      0.027600000000     0.710980000000     0.036460000000    -0.0995041  
C239     C      0.985760000000     0.334430000000     0.963010000000     0.00852241 
C240     C      0.021830000000     0.175820000000     0.035550000000     0.0115629  
C241     C      0.003250000000     0.175330000000     0.963080000000     0.0541439  
C242     C      0.994360000000     0.210750000000     0.042830000000    -0.104757   
C243     C      0.009720000000     0.297450000000     0.971240000000    -0.0990407  
C244     C      0.977790000000     0.211910000000     0.969640000000    -0.115191   
C245     C      0.992820000000     0.274790000000     0.005760000000     0.0160432  
C246     C      0.990690000000     0.234850000000     0.005650000000     0.0244548  
C247     C      0.961520000000     0.335430000000     0.033090000000     0.00886332 
C248     C      0.985960000000     0.298790000000     0.042710000000    -0.100028   
C249     C      0.832480000000     0.980330000000     0.008200000000     0.00976722 
C250     C      0.670980000000     0.035830000000     0.964620000000     0.00922498 
C251     C      0.679240000000     0.977440000000     0.011310000000     0.0544842  
C252     C      0.710200000000     0.025170000000     0.944630000000    -0.104025   
C253     C      0.794410000000     0.000610000000     0.020110000000    -0.101451   
C254     C      0.717020000000     0.966730000000     0.989240000000    -0.115244   
C255     C      0.773560000000     0.015220000000     0.983610000000     0.0175161  
C256     C      0.736530000000     0.003150000000     0.972960000000     0.0248767  
C257     C      0.839010000000     0.027160000000     0.950620000000     0.00693957 
C258     C      0.798050000000     0.044280000000     0.960180000000    -0.10006    
C259     C      0.331940000000     0.978570000000     0.981840000000     0.00817652 
C260     C      0.176630000000     0.027960000000     0.043700000000     0.00974529 
C261     C      0.177700000000     0.975470000000     0.989860000000     0.0538293  
C262     C      0.214940000000     0.044890000000     0.026850000000    -0.10401    
C263     C      0.295530000000     0.963620000000     0.003780000000    -0.100349   
C264     C      0.215840000000     0.993750000000     0.974160000000    -0.114658   
C265     C      0.273860000000     0.998280000000     0.021540000000     0.0184477  
C266     C      0.238580000000     0.012370000000     0.007610000000     0.0251271  
C267     C      0.336240000000     0.034940000000     0.030510000000     0.0076723  
C268     C      0.299370000000     0.019430000000     0.051370000000    -0.100988   
C269     C      0.054300000000     0.968810000000     0.839460000000     0.00683068 
C270     C      0.010610000000     0.026150000000     0.680020000000     0.0105594  
C271     C      0.053100000000     0.964500000000     0.673070000000     0.0517948  
C272     C      0.032830000000     0.035850000000     0.717800000000    -0.104143   
C273     C      0.044050000000     0.953020000000     0.798250000000    -0.100269   
C274     C      0.072020000000     0.973820000000     0.713340000000    -0.115055   
C275     C      0.027480000000     0.985580000000     0.772790000000     0.018661   
C276     C      0.044170000000     0.998160000000     0.738220000000     0.0251859  
C277     C      0.003670000000     0.023180000000     0.830380000000     0.00909766 
C278     C      0.991810000000     0.004650000000     0.791300000000    -0.101647   
C279     C      0.953630000000     0.999510000000     0.173370000000     0.00807631 
C280     C      0.027740000000     0.030700000000     0.332280000000     0.0102746  
C281     C      0.973490000000     0.979440000000     0.339240000000     0.0520301  
C282     C      0.004980000000     0.048890000000     0.298090000000    -0.102771   
C283     C      0.962460000000     0.981040000000     0.213710000000    -0.0997836  
C284     C      0.953020000000     0.996520000000     0.302530000000    -0.114308   
C285     C      0.989720000000     0.007010000000     0.237820000000     0.0170098  
C286     C      0.982640000000     0.017180000000     0.276280000000     0.0235975  
C287     C      0.016350000000     0.039160000000     0.177580000000     0.00926259 
C288     C      0.026940000000     0.018320000000     0.215880000000    -0.100341   
H1       H      0.517090000000     0.572920000000     0.737380000000     0.0449268  
H2       H      0.460060000000     0.453180000000     0.826080000000     0.0309358  
H3       H      0.540080000000     0.460130000000     0.693440000000     0.0302077  
H4       H      0.481010000000     0.449420000000     0.734080000000     0.0449742  
H5       H      0.518730000000     0.447590000000     0.784080000000     0.046235   
H6       H      0.480970000000     0.570480000000     0.791780000000     0.0508873  
H7       H      0.532610000000     0.569520000000     0.666480000000     0.0407203  
H8       H      0.501950000000     0.439310000000     0.854680000000     0.041718   
H9       H      0.454040000000     0.483960000000     0.706190000000     0.0548688  
H10      H      0.523980000000     0.555660000000     0.818660000000     0.0556355  
H11      H      0.498770000000     0.447720000000     0.663100000000     0.0408346  
H12      H      0.474420000000     0.560210000000     0.708440000000     0.0531574  
H13      H      0.545320000000     0.480110000000     0.814640000000     0.0558728  
H14      H      0.469440000000     0.560850000000     0.863350000000     0.0352509  
H15      H      0.561180000000     0.536180000000     0.695870000000     0.0323729  
H16      H      0.415170000000     0.507970000000     0.794540000000     0.0343857  
H17      H      0.474290000000     0.574660000000     0.289280000000     0.0447062  
H18      H      0.527620000000     0.456760000000     0.194380000000     0.030067   
H19      H      0.469060000000     0.460720000000     0.338560000000     0.030032   
H20      H      0.517890000000     0.453980000000     0.286600000000     0.0443592  
H21      H      0.473550000000     0.451060000000     0.241610000000     0.0456539  
H22      H      0.506810000000     0.574830000000     0.231000000000     0.0504515  
H23      H      0.471800000000     0.571420000000     0.362060000000     0.0393682  
H24      H      0.483420000000     0.443570000000     0.169170000000     0.0401062  
H25      H      0.548470000000     0.490270000000     0.307990000000     0.0539601  
H26      H      0.462670000000     0.558320000000     0.207150000000     0.0551463  
H27      H      0.516580000000     0.453460000000     0.360200000000     0.0399846  
H28      H      0.522250000000     0.565740000000     0.310440000000     0.0527646  
H29      H      0.443550000000     0.482920000000     0.213490000000     0.0551843  
H30      H      0.513950000000     0.565060000000     0.158560000000     0.0324629  
H31      H      0.441180000000     0.535430000000     0.338350000000     0.0329467  
H32      H      0.574410000000     0.511830000000     0.222170000000     0.0342401  
H33      H      0.574320000000     0.737330000000     0.524160000000     0.0456754  
H34      H      0.524210000000     0.839720000000     0.437020000000     0.0317662  
H35      H      0.454840000000     0.697200000000     0.516840000000     0.0311991  
H36      H      0.463220000000     0.733210000000     0.456750000000     0.0442802  
H37      H      0.474700000000     0.792400000000     0.445450000000     0.0450723  
H38      H      0.550560000000     0.787000000000     0.550410000000     0.0505442  
H39      H      0.561060000000     0.669770000000     0.546480000000     0.0410365  
H40      H      0.479060000000     0.864390000000     0.447600000000     0.0408172  
H41      H      0.505190000000     0.705070000000     0.441880000000     0.0530396  
H42      H      0.505550000000     0.812050000000     0.552030000000     0.0564858  
H43      H      0.455640000000     0.664640000000     0.475600000000     0.0418482  
H44      H      0.568140000000     0.705680000000     0.483970000000     0.0540366  
H45      H      0.456840000000     0.812550000000     0.491010000000     0.0527273  
H46      H      0.558590000000     0.858070000000     0.545540000000     0.0345766  
H47      H      0.521130000000     0.701200000000     0.561060000000     0.0313971  
H48      H      0.588230000000     0.804160000000     0.463560000000     0.0349959  
H49      H      0.469400000000     0.287390000000     0.530320000000     0.0462248  
H50      H      0.514360000000     0.189920000000     0.441720000000     0.0318565  
H51      H      0.584560000000     0.339100000000     0.508700000000     0.0315423  
H52      H      0.574840000000     0.295610000000     0.455050000000     0.0441508  
H53      H      0.567050000000     0.235160000000     0.447360000000     0.0451997  
H54      H      0.499220000000     0.241530000000     0.557770000000     0.0505262  
H55      H      0.478840000000     0.356070000000     0.548290000000     0.0415697  
H56      H      0.559320000000     0.163620000000     0.448280000000     0.0418337  
H57      H      0.529400000000     0.317850000000     0.440090000000     0.0518202  
H58      H      0.543210000000     0.215060000000     0.554680000000     0.0562679  
H59      H      0.574460000000     0.367330000000     0.465460000000     0.0411808  
H60      H      0.469860000000     0.316680000000     0.487830000000     0.054258   
H61      H      0.586060000000     0.213720000000     0.491690000000     0.0530974  
H62      H      0.488730000000     0.170280000000     0.552770000000     0.0343442  
H63      H      0.523010000000     0.329520000000     0.559850000000     0.03143    
H64      H      0.452950000000     0.224010000000     0.472910000000     0.0350085  
H65      H      0.465430000000     0.771210000000     0.961260000000     0.0459103  
H66      H      0.557110000000     0.668100000000     0.990900000000     0.0319426  
H67      H      0.510110000000     0.822690000000     0.068510000000     0.0329642  
H68      H      0.557510000000     0.774560000000     0.052560000000     0.0447391  
H69      H      0.562440000000     0.714390000000     0.042440000000     0.0454099  
H70      H      0.442990000000     0.723990000000     0.992550000000     0.0506887  
H71      H      0.458170000000     0.842260000000     0.968640000000     0.0413104  
H72      H      0.557830000000     0.643370000000     0.037190000000     0.0418791  
H73      H      0.567540000000     0.794190000000     0.004550000000     0.0522807  
H74      H      0.451300000000     0.699460000000     0.037000000000     0.0562474  
H75      H      0.554000000000     0.846300000000     0.051500000000     0.0428523  
H76      H      0.510410000000     0.795180000000     0.952550000000     0.0537529  
H77      H      0.520980000000     0.695530000000     0.069270000000     0.0533945  
H78      H      0.442800000000     0.651850000000     0.985970000000     0.034672   
H79      H      0.449290000000     0.818460000000     0.014930000000     0.0322802  
H80      H      0.515920000000     0.701810000000     0.934160000000     0.0345457  
H81      H      0.523860000000     0.222590000000     0.965510000000     0.0468697  
H82      H      0.437090000000     0.315360000000     0.021260000000     0.0323777  
H83      H      0.520690000000     0.170000000000     0.081430000000     0.0312876  
H84      H      0.467310000000     0.214450000000     0.082070000000     0.0442663  
H85      H      0.455300000000     0.274190000000     0.074690000000     0.0453035  
H86      H      0.552790000000     0.270880000000     0.988950000000     0.050798   
H87      H      0.541710000000     0.153750000000     0.971190000000     0.0417975  
H88      H      0.449090000000     0.344800000000     0.062960000000     0.042336   
H89      H      0.443480000000     0.193020000000     0.040060000000     0.0526301  
H90      H      0.554800000000     0.299750000000     0.031350000000     0.0566538  
H91      H      0.475790000000     0.142590000000     0.079230000000     0.0412952  
H92      H      0.481190000000     0.194220000000     0.972140000000     0.0555064  
H93      H      0.500560000000     0.299620000000     0.083940000000     0.0531383  
H94      H      0.540470000000     0.340830000000     0.975820000000     0.0355317  
H95      H      0.560340000000     0.179500000000     0.013360000000     0.0312662  
H96      H      0.459200000000     0.280760000000     0.957130000000     0.0353965  
H97      H      0.485760000000     0.063480000000     0.730900000000     0.0457513  
H98      H      0.448080000000     0.972050000000     0.825240000000     0.0331199  
H99      H      0.571610000000     0.984310000000     0.688670000000     0.032264   
H100     H      0.529170000000     0.942310000000     0.726760000000     0.0444833  
H101     H      0.491690000000     0.938930000000     0.780760000000     0.0453667  
H102     H      0.520600000000     0.064210000000     0.782570000000     0.0505923  
H103     H      0.504960000000     0.071130000000     0.660840000000     0.0410477  
H104     H      0.480680000000     0.941000000000     0.852640000000     0.0400555  
H105     H      0.486300000000     0.954410000000     0.697890000000     0.0526988  
H106     H      0.551260000000     0.031380000000     0.808160000000     0.0569853  
H107     H      0.545630000000     0.951420000000     0.656570000000     0.0410035  
H108     H      0.461500000000     0.029400000000     0.700200000000     0.0549883  
H109     H      0.535240000000     0.953710000000     0.807340000000     0.0530043  
H110     H      0.510200000000     0.063460000000     0.855050000000     0.0350001  
H111     H      0.546310000000     0.058730000000     0.691140000000     0.0302053  
H112     H      0.432020000000     0.040790000000     0.793180000000     0.0348327  
H113     H      0.583190000000     0.015190000000     0.283030000000     0.0451537  
H114     H      0.468130000000     0.956990000000     0.188500000000     0.0305804  
H115     H      0.468100000000     0.037400000000     0.322750000000     0.0305723  
H116     H      0.459720000000     0.976560000000     0.284030000000     0.0445461  
H117     H      0.457450000000     0.012470000000     0.233340000000     0.0457002  
H118     H      0.582740000000     0.981160000000     0.227880000000     0.0508195  
H119     H      0.577340000000     0.032910000000     0.352950000000     0.0423745  
H120     H      0.452140000000     0.999420000000     0.162180000000     0.0406262  
H121     H      0.494430000000     0.951940000000     0.313750000000     0.0544091  
H122     H      0.567220000000     0.025290000000     0.203620000000     0.0551006  
H123     H      0.455460000000     0.997030000000     0.354070000000     0.0413139  
H124     H      0.570030000000     0.973440000000     0.312730000000     0.0537899  
H125     H      0.489660000000     0.042480000000     0.205740000000     0.0555216  
H126     H      0.576200000000     0.975340000000     0.154940000000     0.0347883  
H127     H      0.544120000000     0.059690000000     0.321850000000     0.0324119  
H128     H      0.525100000000     0.913210000000     0.218020000000     0.0342341  
H129     H      0.732670000000     0.522700000000     0.577170000000     0.0447944  
H130     H      0.830030000000     0.461310000000     0.466580000000     0.0301542  
H131     H      0.696940000000     0.542480000000     0.460440000000     0.0301191  
H132     H      0.734920000000     0.480830000000     0.454940000000     0.0444234  
H133     H      0.785770000000     0.516850000000     0.453700000000     0.0456885  
H134     H      0.787370000000     0.486250000000     0.579070000000     0.0504286  
H135     H      0.663320000000     0.542080000000     0.568380000000     0.0417125  
H136     H      0.856880000000     0.503300000000     0.450400000000     0.0400973  
H137     H      0.703550000000     0.457580000000     0.489160000000     0.0546008  
H138     H      0.812030000000     0.530430000000     0.564360000000     0.0547575  
H139     H      0.665250000000     0.502390000000     0.447770000000     0.0406579  
H140     H      0.702350000000     0.481310000000     0.564260000000     0.0533197  
H141     H      0.812530000000     0.547140000000     0.486420000000     0.056073   
H142     H      0.861230000000     0.481130000000     0.574790000000     0.0325882  
H143     H      0.696080000000     0.566820000000     0.535180000000     0.0320474  
H144     H      0.799600000000     0.417930000000     0.523210000000     0.0341491  
H145     H      0.286520000000     0.565170000000     0.494830000000     0.0461336  
H146     H      0.193590000000     0.479540000000     0.451360000000     0.0331806  
H147     H      0.332540000000     0.479370000000     0.572390000000     0.0323661  
H148     H      0.289520000000     0.441710000000     0.530860000000     0.044579   
H149     H      0.234300000000     0.441460000000     0.494960000000     0.0454193  
H150     H      0.236490000000     0.564660000000     0.532230000000     0.0507049  
H151     H      0.357630000000     0.569880000000     0.509950000000     0.0407483  
H152     H      0.163410000000     0.447680000000     0.480490000000     0.0403603  
H153     H      0.315680000000     0.454880000000     0.486590000000     0.0524091  
H154     H      0.208150000000     0.530670000000     0.558880000000     0.057111   
H155     H      0.361670000000     0.447620000000     0.541760000000     0.0400302  
H156     H      0.314520000000     0.531930000000     0.466360000000     0.0553904  
H157     H      0.206420000000     0.455320000000     0.537930000000     0.0532482  
H158     H      0.164290000000     0.567730000000     0.518700000000     0.0351542  
H159     H      0.329730000000     0.555060000000     0.552140000000     0.0301602  
H160     H      0.227060000000     0.547340000000     0.440350000000     0.0350698  
H161     H      0.770100000000     0.512620000000     0.927750000000     0.0451302  
H162     H      0.677120000000     0.462530000000     0.046490000000     0.0303853  
H163     H      0.808800000000     0.533780000000     0.043540000000     0.0300427  
H164     H      0.766020000000     0.475710000000     0.051380000000     0.0448194  
H165     H      0.720970000000     0.519890000000     0.052050000000     0.046106   
H166     H      0.712260000000     0.482700000000     0.928670000000     0.050597   
H167     H      0.841660000000     0.525450000000     0.934940000000     0.0412243  
H168     H      0.649840000000     0.505090000000     0.060440000000     0.0411834  
H169     H      0.795110000000     0.448860000000     0.017650000000     0.0547938  
H170     H      0.686960000000     0.526280000000     0.943960000000     0.0551426  
H171     H      0.837320000000     0.491730000000     0.057070000000     0.0406235  
H172     H      0.796930000000     0.469330000000     0.942090000000     0.0531381  
H173     H      0.691110000000     0.546910000000     0.019140000000     0.0557314  
H174     H      0.639840000000     0.474000000000     0.938330000000     0.0334745  
H175     H      0.811470000000     0.555350000000     0.966380000000     0.0331579  
H176     H      0.705810000000     0.416380000000     0.991540000000     0.034354   
H177     H      0.209870000000     0.495640000000     0.074210000000     0.0446832  
H178     H      0.323600000000     0.459220000000     0.962940000000     0.0318503  
H179     H      0.174500000000     0.511080000000     0.952060000000     0.030621   
H180     H      0.220970000000     0.456840000000     0.951510000000     0.0445867  
H181     H      0.266900000000     0.500000000000     0.952180000000     0.0461761  
H182     H      0.268390000000     0.467830000000     0.076760000000     0.0505349  
H183     H      0.141510000000     0.512380000000     0.062220000000     0.0405504  
H184     H      0.340180000000     0.508240000000     0.955240000000     0.0422105  
H185     H      0.191900000000     0.429380000000     0.984690000000     0.0530111  
H186     H      0.285490000000     0.516110000000     0.064030000000     0.0552824  
H187     H      0.147160000000     0.466860000000     0.944460000000     0.0399972  
H188     H      0.183040000000     0.453050000000     0.058080000000     0.0532159  
H189     H      0.283110000000     0.535740000000     0.986410000000     0.0546215  
H190     H      0.341080000000     0.474130000000     0.076240000000     0.0322651  
H191     H      0.173850000000     0.538620000000     0.029670000000     0.0336012  
H192     H      0.297410000000     0.406070000000     0.012980000000     0.0346182  
H193     H      0.039060000000     0.575130000000     0.722550000000     0.0447254  
H194     H      0.974300000000     0.464240000000     0.813330000000     0.0298042  
H195     H      0.054290000000     0.459320000000     0.684950000000     0.02995    
H196     H      0.997550000000     0.453560000000     0.729600000000     0.0444892  
H197     H      0.037590000000     0.454170000000     0.778110000000     0.0459965  
H198     H      0.004880000000     0.578790000000     0.778160000000     0.0506659  
H199     H      0.049920000000     0.566530000000     0.651060000000     0.0408     
H200     H      0.012200000000     0.448580000000     0.846220000000     0.0403319  
H201     H      0.970060000000     0.487220000000     0.701080000000     0.0547112  
H202     H      0.044450000000     0.562320000000     0.808850000000     0.0550464  
H203     H      0.010800000000     0.446410000000     0.658020000000     0.0408731  
H204     H      0.994050000000     0.563130000000     0.696970000000     0.0528802  
H205     H      0.061490000000     0.487150000000     0.810320000000     0.0558405  
H206     H      0.987370000000     0.572100000000     0.849470000000     0.0334728  
H207     H      0.078490000000     0.533590000000     0.680900000000     0.0320742  
H208     H      0.934430000000     0.520370000000     0.778570000000     0.0343668  
H209     H      0.057200000000     0.530070000000     0.225340000000     0.0454426  
H210     H      0.978690000000     0.564450000000     0.327700000000     0.0329527  
H211     H      0.968520000000     0.455830000000     0.180960000000     0.0327558  
H212     H      0.932820000000     0.495550000000     0.227440000000     0.0444755  
H213     H      0.936680000000     0.527100000000     0.284590000000     0.0452216  
H214     H      0.059410000000     0.488890000000     0.272540000000     0.0504297  
H215     H      0.056170000000     0.522780000000     0.152190000000     0.0404197  
H216     H      0.946020000000     0.533850000000     0.355540000000     0.0402608  
H217     H      0.945610000000     0.540670000000     0.202850000000     0.0523801  
H218     H      0.026020000000     0.458420000000     0.297740000000     0.0561993  
H219     H      0.934600000000     0.487390000000     0.155510000000     0.039728   
H220     H      0.022250000000     0.560810000000     0.202120000000     0.0540037  
H221     H      0.950540000000     0.480980000000     0.306700000000     0.0531186  
H222     H      0.064260000000     0.490240000000     0.346560000000     0.0349803  
H223     H      0.046220000000     0.477850000000     0.177530000000     0.0302482  
H224     H      0.048000000000     0.576530000000     0.294650000000     0.0346517  
H225     H      0.058250000000     0.728650000000     0.525930000000     0.0467795  
H226     H      0.008410000000     0.829190000000     0.441770000000     0.0331361  
H227     H      0.939490000000     0.679830000000     0.517190000000     0.0315922  
H228     H      0.942380000000     0.727910000000     0.467720000000     0.0444865  
H229     H      0.954370000000     0.787510000000     0.455900000000     0.0453087  
H230     H      0.037550000000     0.777840000000     0.555030000000     0.0504597  
H231     H      0.049030000000     0.660060000000     0.541610000000     0.0422322  
H232     H      0.966720000000     0.858450000000     0.454270000000     0.0425644  
H233     H      0.983780000000     0.706340000000     0.442890000000     0.0523559  
H234     H      0.995410000000     0.807050000000     0.558130000000     0.0563901  
H235     H      0.943610000000     0.654810000000     0.471070000000     0.0412303  
H236     H      0.051150000000     0.702180000000     0.482150000000     0.0561544  
H237     H      0.943480000000     0.810600000000     0.502110000000     0.0531141  
H238     H      0.051820000000     0.848110000000     0.547050000000     0.0349954  
H239     H      0.007230000000     0.686740000000     0.559650000000     0.031326   
H240     H      0.071190000000     0.790800000000     0.464120000000     0.0355637  
H241     H      0.961910000000     0.278250000000     0.537730000000     0.0463932  
H242     H      0.015430000000     0.182450000000     0.447840000000     0.0325299  
H243     H      0.067760000000     0.329120000000     0.484600000000     0.0331387  
H244     H      0.042060000000     0.281790000000     0.436080000000     0.0442856  
H245     H      0.068480000000     0.231190000000     0.455460000000     0.0454093  
H246     H      0.996920000000     0.235630000000     0.563440000000     0.0501892  
H247     H      0.969400000000     0.350020000000     0.544010000000     0.0425118  
H248     H      0.062120000000     0.159530000000     0.455900000000     0.0411348  
H249     H      0.995040000000     0.303240000000     0.437370000000     0.0517386  
H250     H      0.043190000000     0.213720000000     0.559790000000     0.0547353  
H251     H      0.045580000000     0.353650000000     0.443610000000     0.0415279  
H252     H      0.951900000000     0.302280000000     0.493300000000     0.0530794  
H253     H      0.082770000000     0.211250000000     0.500980000000     0.0528891  
H254     H      0.994950000000     0.162700000000     0.561630000000     0.0343364  
H255     H      0.015570000000     0.326140000000     0.552960000000     0.0335062  
H256     H      0.948280000000     0.204740000000     0.480270000000     0.0357472  
H257     H      0.800630000000     0.078860000000     0.544440000000     0.0450706  
H258     H      0.704180000000     0.965960000000     0.488420000000     0.030717   
H259     H      0.841620000000     0.962670000000     0.555840000000     0.0303175  
H260     H      0.790240000000     0.956750000000     0.506190000000     0.0448362  
H261     H      0.743720000000     0.959080000000     0.548880000000     0.0460172  
H262     H      0.743460000000     0.082410000000     0.511840000000     0.050615   
H263     H      0.872900000000     0.070900000000     0.548290000000     0.0411359  
H264     H      0.673100000000     0.954350000000     0.529200000000     0.0412811  
H265     H      0.814650000000     0.989950000000     0.474380000000     0.054403   
H266     H      0.714090000000     0.067610000000     0.553050000000     0.0551466  
H267     H      0.863490000000     0.951130000000     0.509310000000     0.0405257  
H268     H      0.821790000000     0.066590000000     0.497230000000     0.0534412  
H269     H      0.713580000000     0.993380000000     0.573690000000     0.0554782  
H270     H      0.671910000000     0.075910000000     0.496690000000     0.0329778  
H271     H      0.846320000000     0.037820000000     0.579850000000     0.0327854  
H272     H      0.738720000000     0.018400000000     0.444050000000     0.0344004  
H273     H      0.295420000000     0.074770000000     0.529860000000     0.0450338  
H274     H      0.201880000000     0.957590000000     0.471390000000     0.0313445  
H275     H      0.342500000000     0.962070000000     0.545860000000     0.030112   
H276     H      0.296160000000     0.952150000000     0.491910000000     0.0447546  
H277     H      0.245230000000     0.951500000000     0.528530000000     0.0459684  
H278     H      0.241200000000     0.074200000000     0.490210000000     0.0505138  
H279     H      0.367880000000     0.071610000000     0.539020000000     0.0409013  
H280     H      0.173610000000     0.945850000000     0.514100000000     0.041459   
H281     H      0.320960000000     0.986710000000     0.461940000000     0.0548492  
H282     H      0.214170000000     0.060780000000     0.533560000000     0.0551876  
H283     H      0.368850000000     0.951010000000     0.501590000000     0.0402375  
H284     H      0.320920000000     0.063910000000     0.484540000000     0.0532517  
H285     H      0.216510000000     0.985120000000     0.555870000000     0.055635   
H286     H      0.168950000000     0.066820000000     0.479380000000     0.0334028  
H287     H      0.341140000000     0.037210000000     0.568990000000     0.0326641  
H288     H      0.235200000000     0.010460000000     0.425320000000     0.034486   
H289     H      0.931870000000     0.728430000000     0.000990000000     0.0449006  
H290     H      0.050530000000     0.827790000000     0.048680000000     0.0315536  
H291     H      0.047620000000     0.682940000000     0.983310000000     0.031035   
H292     H      0.055390000000     0.727780000000     0.038850000000     0.0447783  
H293     H      0.057810000000     0.776490000000     0.999770000000     0.0459999  
H294     H      0.933690000000     0.784720000000     0.034010000000     0.0505141  
H295     H      0.936160000000     0.657800000000     0.988050000000     0.0409544  
H296     H      0.061990000000     0.849350000000     0.002200000000     0.0416106  
H297     H      0.020160000000     0.701890000000     0.066980000000     0.0538685  
H298     H      0.947580000000     0.805450000000     0.987400000000     0.0552644  
H299     H      0.056620000000     0.655320000000     0.027190000000     0.0410719  
H300     H      0.944680000000     0.701590000000     0.044860000000     0.0528611  
H301     H      0.024850000000     0.799970000000     0.967010000000     0.0550979  
H302     H      0.940170000000     0.857100000000     0.034810000000     0.0335862  
H303     H      0.970190000000     0.685980000000     0.959040000000     0.0336075  
H304     H      0.997190000000     0.800280000000     0.098180000000     0.0345053  
H305     H      0.012320000000     0.280220000000     0.943770000000     0.0456472  
H306     H      0.052340000000     0.186910000000     0.031340000000     0.0329496  
H307     H      0.931080000000     0.326150000000     0.025290000000     0.0326146  
H308     H      0.969290000000     0.282070000000     0.065290000000     0.0444768  
H309     H      0.007210000000     0.227810000000     0.067530000000     0.0457093  
H310     H      0.976110000000     0.229430000000     0.942250000000     0.0505072  
H311     H      0.001070000000     0.352050000000     0.940130000000     0.0410431  
H312     H      0.021830000000     0.157280000000     0.062470000000     0.0400031  
H313     H      0.014810000000     0.307560000000     0.055420000000     0.0525696  
H314     H      0.947080000000     0.202000000000     0.975120000000     0.0566942  
H315     H      0.959760000000     0.353960000000     0.059960000000     0.0399929  
H316     H      0.040230000000     0.306330000000     0.979100000000     0.0546656  
H317     H      0.964760000000     0.200120000000     0.051860000000     0.0532036  
H318     H      0.988020000000     0.156950000000     0.940770000000     0.0343749  
H319     H      0.956850000000     0.325400000000     0.950550000000     0.0304008  
H320     H      0.066220000000     0.219140000000     0.962570000000     0.0348926  
H321     H      0.776810000000     0.981240000000     0.039330000000     0.0475355  
H322     H      0.676290000000     0.060720000000     0.985080000000     0.0327158  
H323     H      0.835570000000     0.005410000000     0.926480000000     0.0323711  
H324     H      0.784750000000     0.052420000000     0.931620000000     0.0442346  
H325     H      0.722960000000     0.052980000000     0.933830000000     0.0450709  
H326     H      0.736200000000     0.947710000000     0.007340000000     0.0506717  
H327     H      0.847390000000     0.970040000000     0.035420000000     0.0419869  
H328     H      0.650540000000     0.046700000000     0.941490000000     0.0408991  
H329     H      0.801600000000     0.071520000000     0.977760000000     0.051489   
H330     H      0.708700000000     0.947890000000     0.963850000000     0.0557094  
H331     H      0.857900000000     0.051200000000     0.939150000000     0.0411396  
H332     H      0.801850000000     0.026340000000     0.038800000000     0.0546719  
H333     H      0.704310000000     0.006350000000     0.918580000000     0.0518002  
H334     H      0.664170000000     0.949390000000     0.018510000000     0.0343059  
H335     H      0.825250000000     0.954020000000     0.990250000000     0.0319398  
H336     H      0.709530000000     0.035540000000     0.050880000000     0.0356162  
H337     H      0.277820000000     0.944320000000     0.984670000000     0.0465217  
H338     H      0.184000000000     0.009430000000     0.069590000000     0.0320288  
H339     H      0.327200000000     0.058500000000     0.009770000000     0.0323399  
H340     H      0.285250000000     0.043770000000     0.067300000000     0.0446373  
H341     H      0.230060000000     0.061230000000     0.050350000000     0.0454796  
H342     H      0.232310000000     0.972580000000     0.955910000000     0.0505186  
H343     H      0.348520000000     0.952890000000     0.970410000000     0.0415736  
H344     H      0.158350000000     0.052700000000     0.054630000000     0.0412287  
H345     H      0.308600000000     0.998250000000     0.074480000000     0.0534534  
H346     H      0.207640000000     0.017320000000     0.953060000000     0.0555035  
H347     H      0.355720000000     0.048590000000     0.052940000000     0.0419431  
H348     H      0.305550000000     0.944150000000     0.028070000000     0.0536457  
H349     H      0.207360000000     0.067100000000     0.004130000000     0.0536266  
H350     H      0.160370000000     0.966210000000     0.963700000000     0.0349907  
H351     H      0.322150000000     0.996230000000     0.956120000000     0.0329232  
H352     H      0.210090000000     0.940430000000     0.050000000000     0.0360043  
H353     H      0.071050000000     0.939250000000     0.786580000000     0.0450704  
H354     H      0.982000000000     0.012250000000     0.687730000000     0.0323014  
H355     H      0.024450000000     0.047720000000     0.824590000000     0.0332506  
H356     H      0.976400000000     0.026190000000     0.772480000000     0.0451148  
H357     H      0.016020000000     0.056740000000     0.736170000000     0.0461214  
H358     H      0.081680000000     0.946000000000     0.726850000000     0.0504812  
H359     H      0.060890000000     0.943390000000     0.858850000000     0.0417692  
H360     H      0.003950000000     0.054170000000     0.664680000000     0.0409817  
H361     H      0.969490000000     0.981530000000     0.797260000000     0.0537106  
H362     H      0.099300000000     0.991150000000     0.708310000000     0.054417   
H363     H      0.976800000000     0.035850000000     0.844090000000     0.0411207  
H364     H      0.021570000000     0.929500000000     0.801080000000     0.0521473  
H365     H      0.060200000000     0.051910000000     0.709780000000     0.0538788  
H366     H      0.077020000000     0.953220000000     0.653800000000     0.0350372  
H367     H      0.081810000000     0.986370000000     0.837180000000     0.0333521  
H368     H      0.989230000000     0.935900000000     0.704310000000     0.035269   
H369     H      0.933400000000     0.976180000000     0.227500000000     0.0451567  
H370     H      0.051040000000     0.011160000000     0.320280000000     0.0331233  
H371     H      0.001530000000     0.067350000000     0.184750000000     0.0317583  
H372     H      0.048170000000     0.036260000000     0.232630000000     0.045143   
H373     H      0.024600000000     0.067120000000     0.279740000000     0.0454534  
H374     H      0.936600000000     0.972410000000     0.288320000000     0.0503933  
H375     H      0.938040000000     0.977400000000     0.155080000000     0.0423425  
H376     H      0.042660000000     0.054700000000     0.348640000000     0.0413333  
H377     H      0.043160000000     0.990960000000     0.208520000000     0.0549244  
H378     H      0.930640000000     0.018310000000     0.312150000000     0.05446    
H379     H      0.044120000000     0.046150000000     0.161730000000     0.0412915  
H380     H      0.976680000000     0.952000000000     0.209480000000     0.0533821  
H381     H      0.983210000000     0.069930000000     0.310420000000     0.0535922  
H382     H      0.949680000000     0.970730000000     0.359930000000     0.0355837  
H383     H      0.932930000000     0.024390000000     0.177870000000     0.0316569  
H384     H      0.024480000000     0.942000000000     0.295900000000     0.0359438  
N1       N      0.481560000000     0.498910000000     0.862410000000    -0.16998    
N2       N      0.517760000000     0.508220000000     0.661130000000    -0.165766   
N3       N      0.503700000000     0.503000000000     0.160400000000    -0.170018   
N4       N      0.492220000000     0.511750000000     0.365030000000    -0.165349   
N5       N      0.523040000000     0.865470000000     0.493570000000    -0.169997   
N6       N      0.506960000000     0.663420000000     0.513580000000    -0.165786   
N7       N      0.518930000000     0.162900000000     0.497580000000    -0.16986    
N8       N      0.528460000000     0.365820000000     0.509450000000    -0.165547   
N9       N      0.502120000000     0.643230000000     0.006220000000    -0.169146   
N10      N      0.503760000000     0.848690000000     0.012490000000    -0.164717   
N11      N      0.490710000000     0.346330000000     0.014670000000    -0.1697     
N12      N      0.510650000000     0.144000000000     0.025980000000    -0.165613   
N13      N      0.491320000000     0.003170000000     0.857630000000    -0.16922    
N14      N      0.527210000000     0.012010000000     0.654960000000    -0.165075   
N15      N      0.513420000000     0.983450000000     0.154760000000    -0.169564   
N16      N      0.515780000000     0.017170000000     0.357290000000    -0.164769   
N17      N      0.862760000000     0.488560000000     0.512130000000    -0.169571   
N18      N      0.660490000000     0.524020000000     0.507390000000    -0.164747   
N19      N      0.160340000000     0.509260000000     0.494980000000    -0.169477   
N20      N      0.363380000000     0.509130000000     0.527330000000    -0.165624   
N21      N      0.641390000000     0.485000000000     0.000600000000    -0.169695   
N22      N      0.843080000000     0.511260000000     0.996760000000    -0.165593   
N23      N      0.345330000000     0.486230000000     0.014570000000    -0.169478   
N24      N      0.140960000000     0.493910000000     0.001420000000    -0.165544   
N25      N      0.994880000000     0.509560000000     0.850790000000    -0.170252   
N26      N      0.031560000000     0.505900000000     0.650780000000    -0.165555   
N27      N      0.007170000000     0.516260000000     0.355040000000    -0.1696     
N28      N      0.996050000000     0.502150000000     0.150000000000    -0.166175   
N29      N      0.013900000000     0.857010000000     0.497150000000    -0.16911    
N30      N      0.994840000000     0.653110000000     0.508620000000    -0.165089   
N31      N      0.020990000000     0.156520000000     0.504330000000    -0.169286   
N32      N      0.013240000000     0.356140000000     0.498300000000    -0.164076   
N33      N      0.669530000000     0.013930000000     0.507630000000    -0.170067   
N34      N      0.872020000000     0.010300000000     0.530300000000    -0.165668   
N35      N      0.167830000000     0.005180000000     0.492430000000    -0.169059   
N36      N      0.372120000000     0.010970000000     0.521840000000    -0.165073   
N37      N      0.002270000000     0.857310000000     0.022680000000    -0.169313   
N38      N      0.997400000000     0.652850000000     0.004150000000    -0.165029   
N39      N      0.009790000000     0.153590000000     0.000200000000    -0.169336   
N40      N      0.978710000000     0.356770000000     0.999510000000    -0.164925   
N41      N      0.653420000000     0.003080000000     0.987390000000    -0.169317   
N42      N      0.857310000000     0.007110000000     0.984660000000    -0.164926   
N43      N      0.155270000000     0.003610000000     0.014520000000    -0.169571   
N44      N      0.356240000000     0.003530000000     0.007910000000    -0.164903   
N45      N      0.033500000000     0.998960000000     0.654840000000    -0.168253   
N46      N      0.023090000000     0.994160000000     0.856300000000    -0.164217   
N47      N      0.001170000000     0.007570000000     0.357840000000    -0.168608   
N48      N      0.989420000000     0.014720000000     0.153870000000    -0.165029   
O1       O      0.005850000000     0.005040000000     0.004910000000    -0.366393   
O2       O      0.970150000000     0.990930000000     0.093790000000    -0.30378    
O3       O      0.095390000000     0.028060000000     0.034140000000    -0.304003   
O4       O      0.030360000000     0.912300000000     0.996040000000    -0.304181   
O5       O      0.022160000000     0.029800000000     0.097000000000    -0.305299   
O6       O      0.976250000000     0.918300000000     0.031960000000    -0.305143   
O7       O      0.097120000000     0.979780000000     0.990740000000    -0.305434   
O8       O      0.995490000000     0.022470000000     0.910770000000    -0.304935   
O9       O      0.026320000000     0.095170000000     0.028560000000    -0.305303   
O10      O      0.036010000000     0.972270000000     0.918850000000    -0.303048   
O11      O      0.990860000000     0.094760000000     0.973790000000    -0.303779   
O12      O      0.919120000000     0.029220000000     0.968380000000    -0.303089   
O13      O      0.912480000000     0.986950000000     0.017300000000    -0.306954   
O14      O      0.019230000000     0.006490000000     0.506230000000    -0.366313   
O15      O      0.110900000000     0.978980000000     0.517140000000    -0.302665   
O16      O      0.033380000000     0.028170000000     0.413460000000    -0.303151   
O17      O      0.990800000000     0.917920000000     0.481250000000    -0.306464   
O18      O      0.107360000000     0.030200000000     0.477050000000    -0.303127   
O19      O      0.040900000000     0.913280000000     0.522430000000    -0.302641   
O20      O      0.982340000000     0.988170000000     0.419510000000    -0.304077   
O21      O      0.933930000000     0.034250000000     0.540100000000    -0.305348   
O22      O      0.039590000000     0.097030000000     0.479160000000    -0.30578    
O23      O      0.925620000000     0.984590000000     0.498880000000    -0.304847   
O24      O      0.003350000000     0.098370000000     0.533120000000    -0.304155   
O25      O      0.008900000000     0.028010000000     0.599240000000    -0.303929   
O26      O      0.049760000000     0.977740000000     0.592870000000    -0.301627   
O27      O      0.992250000000     0.504410000000     0.000320000000    -0.369284   
O28      O      0.005700000000     0.413230000000     0.975450000000    -0.303869   
O29      O      0.967350000000     0.485470000000     0.091720000000    -0.307812   
O30      O      0.083010000000     0.519010000000     0.023080000000    -0.309917   
O31      O      0.963870000000     0.416780000000     0.025520000000    -0.303784   
O32      O      0.081590000000     0.475680000000     0.974540000000    -0.301836   
O33      O      0.019770000000     0.523920000000     0.090970000000    -0.306097   
O34      O      0.969840000000     0.595410000000     0.983700000000    -0.306166   
O35      O      0.900280000000     0.489560000000     0.024570000000    -0.305997   
O36      O      0.022310000000     0.593140000000     0.022460000000    -0.303621   
O37      O      0.903320000000     0.527820000000     0.972000000000    -0.305308   
O38      O      0.976150000000     0.535010000000     0.910120000000    -0.304251   
O39      O      0.010920000000     0.480170000000     0.908950000000    -0.306957   
O40      O      0.011040000000     0.504900000000     0.503350000000    -0.369052   
O41      O      0.993660000000     0.413860000000     0.526610000000    -0.303864   
O42      O      0.034360000000     0.490280000000     0.411050000000    -0.303389   
O43      O      0.917910000000     0.514000000000     0.483670000000    -0.307612   
O44      O      0.032340000000     0.415940000000     0.474170000000    -0.3039     
O45      O      0.924270000000     0.478870000000     0.538170000000    -0.301628   
O46      O      0.981960000000     0.528650000000     0.415900000000    -0.308207   
O47      O      0.028250000000     0.596850000000     0.522770000000    -0.307514   
O48      O      0.101120000000     0.481590000000     0.479310000000    -0.305786   
O49      O      0.974240000000     0.592760000000     0.486630000000    -0.303292   
O50      O      0.101800000000     0.535660000000     0.515300000000    -0.304881   
O51      O      0.041440000000     0.531880000000     0.589710000000    -0.30639    
O52      O      0.003340000000     0.479470000000     0.595760000000    -0.304745   
O53      O      0.505210000000     0.996970000000     0.006240000000    -0.36984    
O54      O      0.413650000000     0.975970000000     0.985510000000    -0.303163   
O55      O      0.482610000000     0.005460000000     0.099160000000    -0.306988   
O56      O      0.531470000000     0.907970000000     0.027590000000    -0.30449    
O57      O      0.416450000000     0.021490000000     0.031850000000    -0.30692    
O58      O      0.480360000000     0.906370000000     0.987140000000    -0.304964   
O59      O      0.539990000000     0.975180000000     0.093460000000    -0.303124   
O60      O      0.591030000000     0.024310000000     0.972900000000    -0.304972   
O61      O      0.488100000000     0.083300000000     0.043830000000    -0.306127   
O62      O      0.598670000000     0.976740000000     0.016580000000    -0.303453   
O63      O      0.524260000000     0.089100000000     0.989990000000    -0.306881   
O64      O      0.513180000000     0.028700000000     0.915890000000    -0.305121   
O65      O      0.480520000000     0.972450000000     0.916520000000    -0.304108   
O66      O      0.520280000000     0.013990000000     0.506160000000    -0.369946   
O67      O      0.431990000000     0.038810000000     0.534690000000    -0.303062   
O68      O      0.488660000000     0.999590000000     0.416470000000    -0.303285   
O69      O      0.541400000000     0.102940000000     0.477480000000    -0.306993   
O70      O      0.428710000000     0.988750000000     0.493130000000    -0.304327   
O71      O      0.499910000000     0.105790000000     0.527490000000    -0.305114   
O72      O      0.545630000000     0.031360000000     0.415770000000    -0.305268   
O73      O      0.610540000000     0.987520000000     0.526290000000    -0.305011   
O74      O      0.498170000000     0.925450000000     0.476000000000    -0.305841   
O75      O      0.610920000000     0.038860000000     0.486400000000    -0.305412   
O76      O      0.542400000000     0.922210000000     0.523590000000    -0.306715   
O77      O      0.542680000000     0.986130000000     0.594920000000    -0.304991   
O78      O      0.505750000000     0.039710000000     0.597470000000    -0.30381    
O79      O      0.493360000000     0.494790000000     0.011270000000    -0.371235   
O80      O      0.402070000000     0.513010000000     0.990140000000    -0.304119   
O81      O      0.471150000000     0.406010000000     0.038250000000    -0.305921   
O82      O      0.504010000000     0.469350000000     0.918520000000    -0.305119   
O83      O      0.405320000000     0.473810000000     0.042150000000    -0.303477   
O84      O      0.468320000000     0.523360000000     0.923430000000    -0.305247   
O85      O      0.512490000000     0.403980000000     0.987980000000    -0.304054   
O86      O      0.585930000000     0.508540000000     0.030530000000    -0.305338   
O87      O      0.479590000000     0.473730000000     0.104870000000    -0.305826   
O88      O      0.579800000000     0.470920000000     0.977660000000    -0.304163   
O89      O      0.519960000000     0.524330000000     0.098870000000    -0.305215   
O90      O      0.525540000000     0.583200000000     0.024860000000    -0.306784   
O91      O      0.468340000000     0.586300000000     0.993710000000    -0.302779   
O92      O      0.511760000000     0.514060000000     0.512510000000    -0.369172   
O93      O      0.419280000000     0.536230000000     0.501860000000    -0.306409   
O94      O      0.497360000000     0.420970000000     0.531490000000    -0.307418   
O95      O      0.524730000000     0.491370000000     0.420240000000    -0.304678   
O96      O      0.424250000000     0.482840000000     0.538680000000    -0.305244   
O97      O      0.478950000000     0.537500000000     0.425560000000    -0.305597   
O98      O      0.544800000000     0.427170000000     0.487390000000    -0.305226   
O99      O      0.601140000000     0.537650000000     0.535780000000    -0.305773   
O100     O      0.496970000000     0.483610000000     0.602140000000    -0.305332   
O101     O      0.602160000000     0.503520000000     0.480240000000    -0.302906   
O102     O      0.533040000000     0.537730000000     0.602870000000    -0.30669    
O103     O      0.533730000000     0.605620000000     0.535270000000    -0.305574   
O104     O      0.484130000000     0.603900000000     0.493270000000    -0.30908    
S1       S      0.417930000000     0.530440000000     0.827860000000    -0.0450031  
S2       S      0.568590000000     0.536250000000     0.190680000000    -0.044443   
S3       S      0.594520000000     0.831740000000     0.492210000000    -0.0480067  
S4       S      0.448470000000     0.198150000000     0.503440000000    -0.0481426  
S5       S      0.485260000000     0.675770000000     0.936360000000    -0.0466765  
S6       S      0.487300000000     0.307410000000     0.946060000000    -0.0463752  
S7       S      0.447800000000     0.060030000000     0.824900000000    -0.0495716  
S8       S      0.547980000000     0.919740000000     0.185430000000    -0.0455159  
S9       S      0.831800000000     0.424940000000     0.546530000000    -0.0455103  
S10      S      0.197000000000     0.567970000000     0.457540000000    -0.0486602  
S11      S      0.673400000000     0.420890000000     0.967920000000    -0.044726   
S12      S      0.323020000000     0.416120000000     0.042490000000    -0.0422947  
S13      S      0.936580000000     0.544520000000     0.810740000000    -0.0449752  
S14      S      0.067490000000     0.555060000000     0.322640000000    -0.0477059  
S15      S      0.081950000000     0.817170000000     0.492600000000    -0.0461726  
S16      S      0.948110000000     0.184820000000     0.515300000000    -0.0464602  
S17      S      0.708390000000     0.044840000000     0.446260000000    -0.0442982  
S18      S      0.202920000000     0.034440000000     0.428050000000    -0.044564   
S19      S      0.972250000000     0.831000000000     0.090760000000    -0.0445928  
S20      S      0.049660000000     0.188710000000     0.942070000000    -0.0498214  
S21      S      0.690270000000     0.000790000000     0.057160000000    -0.0454219  
S22      S      0.187840000000     0.931940000000     0.017450000000    -0.0464006  
S23      S      0.018100000000     0.925590000000     0.678080000000    -0.0446963  
S24      S      0.999440000000     0.935470000000     0.326850000000    -0.0455619  
Zn1      Zn     0.967270000000     0.976390000000     0.036120000000     0.451555   
Zn2      Zn     0.036820000000     0.038220000000     0.040210000000     0.449141   
Zn3      Zn     0.040780000000     0.968000000000     0.978230000000     0.449859   
Zn4      Zn     0.978520000000     0.037180000000     0.965650000000     0.446341   
Zn5      Zn     0.054290000000     0.970030000000     0.533880000000     0.447401   
Zn6      Zn     0.049100000000     0.039400000000     0.469870000000     0.448937   
Zn7      Zn     0.980340000000     0.975620000000     0.477390000000     0.451475   
Zn8      Zn     0.992660000000     0.041100000000     0.543580000000     0.449192   
Zn9      Zn     0.022150000000     0.469270000000     0.965930000000     0.447573   
Zn10     Zn     0.956930000000     0.475050000000     0.034620000000     0.450407   
Zn11     Zn     0.027860000000     0.534790000000     0.033170000000     0.452632   
Zn12     Zn     0.961320000000     0.539490000000     0.967460000000     0.451341   
Zn13     Zn     0.983710000000     0.470620000000     0.540380000000     0.447523   
Zn14     Zn     0.043550000000     0.473810000000     0.467760000000     0.449677   
Zn15     Zn     0.972270000000     0.534430000000     0.473540000000     0.451711   
Zn16     Zn     0.044800000000     0.541410000000     0.531410000000     0.453264   
Zn17     Zn     0.471090000000     0.963440000000     0.974660000000     0.44878    
Zn18     Zn     0.473930000000     0.025860000000     0.044270000000     0.452552   
Zn19     Zn     0.543330000000     0.965460000000     0.034870000000     0.451221   
Zn20     Zn     0.532230000000     0.033750000000     0.971890000000     0.451421   
Zn21     Zn     0.490520000000     0.048920000000     0.540550000000     0.448733   
Zn22     Zn     0.484610000000     0.983100000000     0.473700000000     0.448771   
Zn23     Zn     0.553830000000     0.045590000000     0.472560000000     0.453623   
Zn24     Zn     0.552740000000     0.978380000000     0.537000000000     0.452488   
Zn25     Zn     0.458700000000     0.528940000000     0.981350000000     0.451631   
Zn26     Zn     0.463370000000     0.463430000000     0.048580000000     0.451941   
Zn27     Zn     0.521400000000     0.460810000000     0.974650000000     0.452489   
Zn28     Zn     0.530250000000     0.526680000000     0.040560000000     0.452348   
Zn29     Zn     0.474730000000     0.546920000000     0.484000000000     0.452705   
Zn30     Zn     0.483130000000     0.476340000000     0.544830000000     0.450918   
Zn31     Zn     0.545250000000     0.485320000000     0.475780000000     0.446856   
Zn32     Zn     0.543730000000     0.547990000000     0.545680000000     0.451036   


