data_structure

_audit_creation_method RASPA-1.0
_audit_creation_date 2023-5-25
_audit_author_name 'Poobodin Mano'

_cell_length_a    33.9317
_cell_length_b    33.997
_cell_length_c    34.1221
_cell_angle_alpha 90
_cell_angle_beta  90
_cell_angle_gamma 90
_cell_volume      39362.4

_symmetry_cell_setting          triclinic
_symmetry_space_group_name_Hall 'P 1'
_symmetry_space_group_name_H-M  'P 1'
_symmetry_Int_Tables_number     1

_symmetry_equiv_pos_as_xyz 'x,y,z'

loop_
_atom_site_label
_atom_site_type_symbol
_atom_site_fract_x
_atom_site_fract_y
_atom_site_fract_z
_atom_site_charge
C1       C      0.017150000000     0.008700000000     0.127660000000     0.365604   
C2       C      0.114480000000     0.007830000000     0.006060000000     0.362564   
C3       C      0.001880000000     0.902240000000     0.017450000000     0.365775   
C4       C      0.996660000000     0.016210000000     0.910700000000     0.364617   
C5       C      0.010710000000     0.121430000000     0.024100000000     0.36452    
C6       C      0.898100000000     0.014270000000     0.024630000000     0.359974   
C7       C      0.006180000000     0.014820000000     0.412900000000     0.359008   
C8       C      0.120150000000     0.023270000000     0.516060000000     0.364613   
C9       C      0.008190000000     0.128420000000     0.517850000000     0.367235   
C10      C      0.015360000000     0.021700000000     0.628780000000     0.364086   
C11      C      0.015470000000     0.909610000000     0.526130000000     0.366675   
C12      C      0.901560000000     0.013590000000     0.522880000000     0.360434   
C13      C      0.011010000000     0.502040000000     0.892020000000     0.364409   
C14      C      0.011620000000     0.402320000000     0.006450000000     0.365378   
C15      C      0.108180000000     0.526810000000     0.007060000000     0.365535   
C16      C      0.992720000000     0.514060000000     0.107750000000     0.362322   
C17      C      0.890910000000     0.499200000000     0.991820000000     0.362974   
C18      C      0.984740000000     0.618880000000     0.992170000000     0.365337   
C19      C      0.002550000000     0.524430000000     0.390920000000     0.363027   
C20      C      0.116890000000     0.517550000000     0.501440000000     0.362944   
C21      C      0.009890000000     0.625360000000     0.500580000000     0.363909   
C22      C      0.004620000000     0.512370000000     0.606450000000     0.361305   
C23      C      0.012070000000     0.408460000000     0.487460000000     0.362774   
C24      C      0.898270000000     0.513940000000     0.504610000000     0.367233   
C25      C      0.399560000000     0.992600000000     0.003090000000     0.362889   
C26      C      0.506110000000     0.001860000000     0.115140000000     0.363738   
C27      C      0.513930000000     0.887660000000     0.014110000000     0.36279    
C28      C      0.618400000000     0.000270000000     0.006370000000     0.365508   
C29      C      0.506910000000     0.105700000000     0.006950000000     0.364939   
C30      C      0.508530000000     0.993340000000     0.898350000000     0.364537   
C31      C      0.405010000000     0.003230000000     0.519100000000     0.366453   
C32      C      0.507740000000     0.992910000000     0.397880000000     0.365845   
C33      C      0.520200000000     0.102730000000     0.501040000000     0.363445   
C34      C      0.622590000000     0.987180000000     0.505020000000     0.363713   
C35      C      0.501430000000     0.885960000000     0.500320000000     0.362583   
C36      C      0.522870000000     0.992170000000     0.614250000000     0.363862   
C37      C      0.504110000000     0.485500000000     0.097590000000     0.36559    
C38      C      0.392270000000     0.509120000000     0.987550000000     0.361662   
C39      C      0.506920000000     0.605860000000     0.004550000000     0.362553   
C40      C      0.498120000000     0.503450000000     0.880830000000     0.361989   
C41      C      0.492310000000     0.390010000000     0.986020000000     0.366375   
C42      C      0.609320000000     0.496060000000     0.980070000000     0.365329   
C43      C      0.398270000000     0.487700000000     0.499420000000     0.364204   
C44      C      0.494810000000     0.605160000000     0.488200000000     0.364053   
C45      C      0.519670000000     0.497840000000     0.598240000000     0.364464   
C46      C      0.614740000000     0.501600000000     0.485470000000     0.365274   
C47      C      0.505560000000     0.499820000000     0.381680000000     0.364663   
C48      C      0.506080000000     0.387820000000     0.485470000000     0.36345    
C49      C      0.542440000000     0.532460000000     0.658070000000     0.0100028  
C50      C      0.499130000000     0.467140000000     0.818050000000     0.00964456 
C51      C      0.486010000000     0.540830000000     0.819670000000    -0.00507779 
C52      C      0.526140000000     0.472470000000     0.782790000000    -0.0996403  
C53      C      0.517630000000     0.543400000000     0.694140000000    -0.103658   
C54      C      0.511720000000     0.546050000000     0.782640000000    -0.0912472  
C55      C      0.510670000000     0.507340000000     0.719380000000     0.0295369  
C56      C      0.514030000000     0.508210000000     0.759240000000     0.028148   
C57      C      0.518900000000     0.462330000000     0.661740000000     0.0103833  
C58      C      0.493980000000     0.472060000000     0.697710000000    -0.102575   
C59      C      0.543310000000     0.496240000000     0.319530000000     0.010601   
C60      C      0.470470000000     0.465050000000     0.158480000000     0.00900738 
C61      C      0.543120000000     0.483090000000     0.159020000000    -0.00664893 
C62      C      0.463720000000     0.488440000000     0.196200000000    -0.0989995  
C63      C      0.535410000000     0.470860000000     0.283410000000    -0.10374    
C64      C      0.537330000000     0.504150000000     0.198440000000    -0.0888635  
C65      C      0.500590000000     0.486530000000     0.260230000000     0.0271032  
C66      C      0.501120000000     0.489800000000     0.220350000000     0.0271096  
C67      C      0.472530000000     0.518750000000     0.319800000000     0.0101471  
C68      C      0.463430000000     0.492860000000     0.284130000000    -0.103594   
C69      C      0.465420000000     0.665200000000     0.459170000000     0.00914983 
C70      C      0.522200000000     0.818890000000     0.519440000000     0.00834665 
C71      C      0.460630000000     0.830110000000     0.477420000000    -0.00684693 
C72      C      0.531030000000     0.782210000000     0.495210000000    -0.0985197  
C73      C      0.447750000000     0.703760000000     0.475070000000    -0.106029   
C74      C      0.468940000000     0.790900000000     0.456150000000    -0.0898514  
C75      C      0.479540000000     0.727840000000     0.495120000000     0.0371506  
C76      C      0.492710000000     0.763660000000     0.482070000000     0.0241626  
C77      C      0.519530000000     0.669520000000     0.510890000000     0.0102912  
C78      C      0.498890000000     0.705380000000     0.528060000000    -0.1055     
C79      C      0.518980000000     0.327570000000     0.446540000000     0.00931955 
C80      C      0.498780000000     0.167880000000     0.525500000000     0.00928571 
C81      C      0.551080000000     0.162230000000     0.472300000000    -0.00615337 
C82      C      0.480020000000     0.201980000000     0.503290000000    -0.0997551  
C83      C      0.540660000000     0.289260000000     0.456880000000    -0.103665   
C84      C      0.534460000000     0.199730000000     0.452700000000    -0.091035   
C85      C      0.517020000000     0.264690000000     0.485760000000     0.0310161  
C86      C      0.511470000000     0.224900000000     0.481560000000     0.027136   
C87      C      0.480430000000     0.323900000000     0.509550000000     0.0102541  
C88      C      0.503860000000     0.287550000000     0.521730000000    -0.103389   
C89      C      0.526890000000     0.661560000000     0.047100000000     0.00920541 
C90      C      0.491270000000     0.823070000000     0.989820000000     0.00877122 
C91      C      0.546840000000     0.828080000000     0.040350000000    -0.00699718 
C92      C      0.475690000000     0.787130000000     0.011470000000    -0.099052   
C93      C      0.547950000000     0.700830000000     0.039020000000    -0.105348   
C94      C      0.532760000000     0.788760000000     0.058390000000    -0.0897572  
C95      C      0.521180000000     0.728080000000     0.015980000000     0.0350725  
C96      C      0.510020000000     0.764690000000     0.028590000000     0.0239341  
C97      C      0.483100000000     0.672620000000     0.987900000000     0.0101466  
C98      C      0.506420000000     0.709730000000     0.978310000000    -0.104561   
C99      C      0.516580000000     0.325470000000     0.962110000000     0.0116069  
C100     C      0.485930000000     0.166940000000     0.040020000000     0.00758936 
C101     C      0.533260000000     0.168840000000     0.982110000000    -0.00463267 
C102     C      0.465670000000     0.204460000000     0.025310000000    -0.0984733  
C103     C      0.531900000000     0.291720000000     0.987370000000    -0.105345   
C104     C      0.512120000000     0.205670000000     0.967010000000    -0.0906811  
C105     C      0.497530000000     0.268690000000     0.004310000000     0.0320122  
C106     C      0.493370000000     0.228780000000     0.000180000000     0.0288864  
C107     C      0.455540000000     0.329550000000     0.003950000000     0.00899519 
C108     C      0.469200000000     0.293910000000     0.028020000000    -0.104091   
C109     C      0.525770000000     0.028560000000     0.677100000000     0.0107388  
C110     C      0.490340000000     0.958740000000     0.837390000000     0.00979    
C111     C      0.515670000000     0.029360000000     0.835790000000    -0.00629306 
C112     C      0.513630000000     0.949240000000     0.800090000000    -0.100163   
C113     C      0.500790000000     0.022910000000     0.713880000000    -0.104091   
C114     C      0.537170000000     0.020270000000     0.797300000000    -0.089977   
C115     C      0.513390000000     0.986280000000     0.736000000000     0.0279817  
C116     C      0.518760000000     0.985990000000     0.775640000000     0.027971   
C117     C      0.539860000000     0.955770000000     0.674800000000     0.0100594  
C118     C      0.514570000000     0.949090000000     0.711500000000    -0.103673   
C119     C      0.469420000000     0.978360000000     0.338070000000     0.0111594  
C120     C      0.541080000000     0.998540000000     0.178590000000     0.00937557 
C121     C      0.469630000000     0.021570000000     0.174520000000    -0.00576326 
C122     C      0.531730000000     0.976530000000     0.216390000000    -0.0987143  
C123     C      0.461710000000     0.003780000000     0.301800000000    -0.10587    
C124     C      0.460470000000     0.999770000000     0.213000000000    -0.0905186  
C125     C      0.498270000000     0.004340000000     0.276410000000     0.032098   
C126     C      0.497370000000     0.995400000000     0.237490000000     0.0272402  
C127     C      0.542390000000     0.993160000000     0.334050000000     0.0106447  
C128     C      0.535330000000     0.017740000000     0.297270000000    -0.103948   
C129     C      0.676160000000     0.540810000000     0.487990000000     0.0114628  
C130     C      0.838690000000     0.478450000000     0.526010000000     0.0086061  
C131     C      0.834160000000     0.548410000000     0.499470000000    -0.00685772 
C132     C      0.801750000000     0.466840000000     0.503130000000    -0.0994491  
C133     C      0.711450000000     0.535980000000     0.515280000000    -0.104987   
C134     C      0.795290000000     0.537600000000     0.479160000000    -0.0895117  
C135     C      0.735800000000     0.500550000000     0.503420000000     0.0291904  
C136     C      0.775510000000     0.502340000000     0.497920000000     0.0276853  
C137     C      0.678080000000     0.468250000000     0.472170000000     0.010393   
C138     C      0.712890000000     0.462430000000     0.500220000000    -0.104461   
C139     C      0.338890000000     0.470190000000     0.538020000000     0.0105803  
C140     C      0.180990000000     0.509540000000     0.467890000000     0.00916816 
C141     C      0.177630000000     0.527630000000     0.540370000000    -0.00566393 
C142     C      0.213940000000     0.480460000000     0.476690000000    -0.0990828  
C143     C      0.302630000000     0.495730000000     0.547310000000    -0.105047   
C144     C      0.212750000000     0.499890000000     0.548660000000    -0.0907961  
C145     C      0.276920000000     0.499730000000     0.511170000000     0.0325799  
C146     C      0.237180000000     0.494000000000     0.512020000000     0.0259957  
C147     C      0.333480000000     0.487520000000     0.466310000000     0.0110869  
C148     C      0.298230000000     0.513880000000     0.474790000000    -0.103834   
C149     C      0.668880000000     0.478230000000     0.941820000000     0.0118449  
C150     C      0.825170000000     0.525710000000     0.008270000000     0.00818756 
C151     C      0.832650000000     0.465940000000     0.962870000000    -0.00669052 
C152     C      0.789070000000     0.506290000000     0.026380000000    -0.0992292  
C153     C      0.710700000000     0.464070000000     0.952620000000    -0.106252   
C154     C      0.793790000000     0.449370000000     0.979920000000    -0.0902567  
C155     C      0.733070000000     0.492740000000     0.978550000000     0.0381553  
C156     C      0.768350000000     0.482580000000     0.995190000000     0.0250038  
C157     C      0.671920000000     0.526210000000     0.999590000000     0.0114858  
C158     C      0.713710000000     0.532420000000     0.984410000000    -0.105988   
C159     C      0.172760000000     0.507980000000     0.035450000000     0.0112766  
C160     C      0.331800000000     0.535020000000     0.956030000000     0.00652823 
C161     C      0.328080000000     0.488110000000     0.014390000000    -0.00569805 
C162     C      0.294730000000     0.556490000000     0.970850000000    -0.0972052  
C163     C      0.207170000000     0.492020000000     0.011510000000    -0.10526    
C164     C      0.293350000000     0.511930000000     0.030220000000    -0.0895066  
C165     C      0.229970000000     0.525890000000     0.993280000000     0.0312616  
C166     C      0.269990000000     0.530220000000     0.997120000000     0.0265693  
C167     C      0.167590000000     0.566190000000     0.990300000000     0.00977304 
C168     C      0.204690000000     0.552840000000     0.968040000000    -0.104054   
C169     C      0.997150000000     0.466890000000     0.829710000000     0.0118784  
C170     C      0.015460000000     0.547400000000     0.668990000000     0.00818303 
C171     C      0.981370000000     0.480880000000     0.667850000000    -0.00577158 
C172     C      0.038310000000     0.535710000000     0.705830000000    -0.09866    
C173     C      0.980640000000     0.484400000000     0.791830000000    -0.104253   
C174     C      0.003910000000     0.469290000000     0.705160000000    -0.0901455  
C175     C      0.012290000000     0.506790000000     0.769330000000     0.0290457  
C176     C      0.016000000000     0.504940000000     0.729260000000     0.0276091  
C177     C      0.049020000000     0.519370000000     0.832500000000     0.0105361  
C178     C      0.034480000000     0.537000000000     0.793810000000    -0.103364   
C179     C      0.027850000000     0.503920000000     0.325960000000     0.0105448  
C180     C      0.954260000000     0.530950000000     0.166990000000     0.0086575  
C181     C      0.018360000000     0.491830000000     0.171840000000    -0.00531268 
C182     C      0.963610000000     0.551300000000     0.206090000000    -0.0993347  
C183     C      0.005040000000     0.485650000000     0.292030000000    -0.106111   
C184     C      0.027920000000     0.513850000000     0.209810000000    -0.0905739  
C185     C      0.983690000000     0.517750000000     0.269710000000     0.0329495  
C186     C      0.990690000000     0.526160000000     0.231020000000     0.0282496  
C187     C      0.975810000000     0.556970000000     0.331490000000     0.00791195 
C188     C      0.954780000000     0.540430000000     0.295120000000    -0.103984   
C189     C      0.983780000000     0.847750000000     0.547040000000     0.0102053  
C190     C      0.049400000000     0.686320000000     0.505300000000     0.00853325 
C191     C      0.977030000000     0.688210000000     0.485570000000    -0.00328138 
C192     C      0.043830000000     0.723630000000     0.529660000000    -0.0984967  
C193     C      0.973340000000     0.812170000000     0.521690000000    -0.103139   
C194     C      0.970900000000     0.724980000000     0.511020000000    -0.0924368  
C195     C      0.009940000000     0.787700000000     0.514530000000     0.0285     
C196     C      0.009010000000     0.747650000000     0.515450000000     0.0296421  
C197     C      0.053440000000     0.847520000000     0.521380000000     0.0105604  
C198     C      0.044940000000     0.810060000000     0.497960000000    -0.102757   
C199     C      0.044240000000     0.190870000000     0.527660000000     0.0102585  
C200     C      0.975550000000     0.345730000000     0.486980000000     0.0101744  
C201     C      0.047260000000     0.348830000000     0.465400000000    -0.00385951 
C202     C      0.983370000000     0.307480000000     0.508910000000    -0.0989425  
C203     C      0.054500000000     0.221240000000     0.495980000000    -0.104443   
C204     C      0.055530000000     0.309940000000     0.487160000000    -0.0918225  
C205     C      0.018340000000     0.245930000000     0.487700000000     0.0306797  
C206     C      0.018290000000     0.285790000000     0.491680000000     0.0287947  
C207     C      0.972830000000     0.191260000000     0.506570000000     0.0109828  
C208     C      0.982130000000     0.222660000000     0.475900000000    -0.103334   
C209     C      0.683770000000     0.964640000000     0.537470000000     0.00942468 
C210     C      0.837790000000     0.031030000000     0.492550000000     0.00699559 
C211     C      0.842400000000     0.978340000000     0.546560000000    -0.00622359 
C212     C      0.796830000000     0.041690000000     0.507980000000    -0.0982381  
C213     C      0.724900000000     0.951160000000     0.524390000000    -0.107167   
C214     C      0.800270000000     0.989550000000     0.559140000000    -0.0897359  
C215     C      0.746730000000     0.985690000000     0.506600000000     0.0400963  
C216     C      0.777450000000     0.005140000000     0.524360000000     0.0249727  
C217     C      0.685340000000     0.016590000000     0.483110000000     0.00870578 
C218     C      0.725510000000     0.000570000000     0.470610000000    -0.106253   
C219     C      0.347200000000     0.025410000000     0.557930000000     0.00898366 
C220     C      0.183660000000     0.000220000000     0.488510000000     0.00868341 
C221     C      0.181210000000     0.058020000000     0.535820000000    -0.0066203  
C222     C      0.219440000000     0.984150000000     0.510350000000    -0.0989425  
C223     C      0.309560000000     0.047890000000     0.546280000000    -0.103731   
C224     C      0.219870000000     0.043740000000     0.554970000000    -0.0903398  
C225     C      0.282920000000     0.022670000000     0.520650000000     0.0316893  
C226     C      0.243390000000     0.017720000000     0.527430000000     0.0266209  
C227     C      0.338540000000     0.980280000000     0.499790000000     0.0100308  
C228     C      0.304010000000     0.005120000000     0.485650000000    -0.103429   
C229     C      0.944880000000     0.677820000000     0.008630000000     0.0101826  
C230     C      0.023290000000     0.839000000000     0.988330000000     0.00970771 
C231     C      0.978850000000     0.840310000000     0.048310000000    -0.00518966 
C232     C      0.997600000000     0.806940000000     0.970370000000    -0.0994344  
C233     C      0.957780000000     0.715640000000     0.029620000000    -0.103613   
C234     C      0.955810000000     0.804770000000     0.031870000000    -0.091549   
C235     C      0.983500000000     0.741250000000     0.003420000000     0.0303029  
C236     C      0.980130000000     0.781500000000     0.002460000000     0.0278699  
C237     C      0.001700000000     0.683100000000     0.961890000000     0.0100193  
C238     C      0.017130000000     0.719200000000     0.983650000000    -0.102903   
C239     C      0.048790000000     0.344670000000     0.031410000000     0.0106318  
C240     C      0.983760000000     0.185580000000     0.003050000000     0.00836145 
C241     C      0.037360000000     0.181530000000     0.055620000000    -0.00687768 
C242     C      0.004690000000     0.221250000000     0.985790000000    -0.0988935  
C243     C      0.035600000000     0.308760000000     0.055420000000    -0.106988   
C244     C      0.054710000000     0.220540000000     0.040010000000    -0.0900168  
C245     C      0.011660000000     0.281380000000     0.029570000000     0.0377793  
C246     C      0.023570000000     0.244370000000     0.018670000000     0.0246116  
C247     C      0.989740000000     0.335720000000     0.986590000000     0.0113989  
C248     C      0.975890000000     0.301820000000     0.012530000000    -0.106055   
C249     C      0.680280000000     0.977860000000     0.037130000000     0.0110164  
C250     C      0.836270000000     0.037120000000     0.994160000000     0.00744981 
C251     C      0.836160000000     0.983530000000     0.047540000000    -0.00550967 
C252     C      0.795870000000     0.050540000000     0.008790000000    -0.0988902  
C253     C      0.719860000000     0.963140000000     0.021600000000    -0.108435   
C254     C      0.794750000000     0.997820000000     0.059370000000    -0.0898554  
C255     C      0.742390000000     0.997900000000     0.005480000000     0.0407344  
C256     C      0.773750000000     0.015260000000     0.024250000000     0.0252253  
C257     C      0.680670000000     0.030810000000     0.983820000000     0.00885035 
C258     C      0.721070000000     0.015440000000     0.970590000000    -0.106323   
C259     C      0.181020000000     0.031630000000     0.024480000000     0.0110221  
C260     C      0.338450000000     0.958340000000     0.983150000000     0.00882268 
C261     C      0.336420000000     0.018900000000     0.027630000000    -0.00517224 
C262     C      0.298670000000     0.970390000000     0.965190000000    -0.0989484  
C263     C      0.216370000000     0.007400000000     0.037860000000    -0.106026   
C264     C      0.298050000000     0.031310000000     0.007610000000    -0.0904908  
C265     C      0.236540000000     0.989260000000     0.002550000000     0.0316701  
C266     C      0.275280000000     0.995890000000     0.993240000000     0.0273913  
C267     C      0.172010000000     0.985800000000     0.966850000000     0.00951157 
C268     C      0.209420000000     0.963120000000     0.978570000000    -0.104483   
C269     C      0.033260000000     0.056220000000     0.690090000000     0.0105118  
C270     C      0.997210000000     0.982430000000     0.846530000000     0.0101437  
C271     C      0.979490000000     0.055050000000     0.851920000000    -0.00459439 
C272     C      0.021860000000     0.990980000000     0.810180000000    -0.0990582  
C273     C      0.007350000000     0.065440000000     0.725830000000    -0.104694   
C274     C      0.003660000000     0.063700000000     0.814630000000    -0.0916971  
C275     C      0.001360000000     0.028390000000     0.749780000000     0.0298753  
C276     C      0.006910000000     0.027320000000     0.789290000000     0.0272067  
C277     C      0.011040000000     0.985290000000     0.691340000000     0.00992775 
C278     C      0.985330000000     0.993630000000     0.727030000000    -0.102273   
C279     C      0.041750000000     0.040200000000     0.188070000000     0.0110008  
C280     C      0.008490000000     0.975600000000     0.351920000000     0.00929079 
C281     C      0.988650000000     0.047840000000     0.350900000000    -0.00276574 
C282     C      0.030640000000     0.980930000000     0.313230000000    -0.09945    
C283     C      0.019120000000     0.051090000000     0.225370000000    -0.104027   
C284     C      0.012250000000     0.053770000000     0.312830000000    -0.0936893  
C285     C      0.012610000000     0.014710000000     0.250150000000     0.02854    
C286     C      0.015230000000     0.015710000000     0.290030000000     0.0305521  
C287     C      0.013930000000     0.971430000000     0.189890000000     0.00870662 
C288     C      0.993560000000     0.980330000000     0.228960000000    -0.101214   
H1       H      0.534090000000     0.566690000000     0.710040000000     0.0518745  
H2       H      0.469430000000     0.458500000000     0.807360000000     0.042182   
H3       H      0.547850000000     0.450900000000     0.671970000000     0.0348472  
H4       H      0.490450000000     0.445350000000     0.715890000000     0.0541751  
H5       H      0.527400000000     0.444770000000     0.765820000000     0.0506024  
H6       H      0.499290000000     0.570780000000     0.765340000000     0.0589881  
H7       H      0.544330000000     0.558640000000     0.638630000000     0.0454911  
H8       H      0.510320000000     0.442200000000     0.835910000000     0.0451401  
H9       H      0.463800000000     0.479870000000     0.687680000000     0.0694341  
H10      H      0.542060000000     0.554550000000     0.791550000000     0.0548819  
H11      H      0.504340000000     0.438380000000     0.644960000000     0.044917   
H12      H      0.488790000000     0.555650000000     0.684660000000     0.0650166  
H13      H      0.556630000000     0.477440000000     0.793650000000     0.0597047  
H14      H      0.491620000000     0.566910000000     0.838550000000     0.0574243  
H15      H      0.572830000000     0.525210000000     0.667960000000     0.0374131  
H16      H      0.409840000000     0.498810000000     0.847510000000     0.154487   
H17      H      0.562920000000     0.467730000000     0.266300000000     0.0635982  
H18      H      0.474700000000     0.433540000000     0.166040000000     0.0458055  
H19      H      0.479610000000     0.548960000000     0.309410000000     0.0345712  
H20      H      0.440030000000     0.508210000000     0.267300000000     0.0486796  
H21      H      0.439340000000     0.473500000000     0.212030000000     0.050757   
H22      H      0.565020000000     0.503070000000     0.215510000000     0.0561474  
H23      H      0.566540000000     0.481970000000     0.337570000000     0.0462349  
H24      H      0.443200000000     0.467070000000     0.140520000000     0.0450141  
H25      H      0.451780000000     0.463940000000     0.293940000000     0.0597709  
H26      H      0.532590000000     0.535910000000     0.192210000000     0.054018   
H27      H      0.445510000000     0.520620000000     0.338140000000     0.0436463  
H28      H      0.527840000000     0.440670000000     0.293430000000     0.0693524  
H29      H      0.454310000000     0.518920000000     0.188980000000     0.0545554  
H30      H      0.565090000000     0.500500000000     0.142190000000     0.0591097  
H31      H      0.555140000000     0.525040000000     0.309510000000     0.0342231  
H32      H      0.535370000000     0.399990000000     0.122300000000     0.156578   
H33      H      0.433030000000     0.718580000000     0.450310000000     0.0557356  
H34      H      0.507690000000     0.810000000000     0.547260000000     0.0454841  
H35      H      0.543890000000     0.679480000000     0.491460000000     0.0356419  
H36      H      0.519230000000     0.722870000000     0.546450000000     0.0543457  
H37      H      0.551210000000     0.762320000000     0.511160000000     0.0494397  
H38      H      0.440610000000     0.778830000000     0.445780000000     0.0577072  
H39      H      0.440800000000     0.645810000000     0.449740000000     0.0457113  
H40      H      0.550720000000     0.832930000000     0.527270000000     0.0449078  
H41      H      0.475640000000     0.695070000000     0.548620000000     0.0668335  
H42      H      0.486500000000     0.797140000000     0.429340000000     0.0529063  
H43      H      0.532940000000     0.652800000000     0.535510000000     0.0456201  
H44      H      0.424420000000     0.696640000000     0.496820000000     0.0682893  
H45      H      0.547820000000     0.791320000000     0.468730000000     0.0569646  
H46      H      0.450040000000     0.850900000000     0.454580000000     0.0582424  
H47      H      0.483000000000     0.672200000000     0.432550000000     0.0353196  
H48      H      0.432670000000     0.869220000000     0.555540000000     0.156263   
H49      H      0.545680000000     0.274250000000     0.428530000000     0.0540647  
H50      H      0.518370000000     0.179840000000     0.548730000000     0.0440775  
H51      H      0.452660000000     0.314210000000     0.495160000000     0.0355009  
H52      H      0.486800000000     0.270700000000     0.543530000000     0.0526118  
H53      H      0.461300000000     0.219350000000     0.523280000000     0.0499794  
H54      H      0.559650000000     0.215100000000     0.438940000000     0.0598412  
H55      H      0.539260000000     0.346450000000     0.429220000000     0.0471907  
H56      H      0.474890000000     0.151210000000     0.540350000000     0.0451041  
H57      H      0.530720000000     0.297430000000     0.537590000000     0.0669974  
H58      H      0.514200000000     0.190990000000     0.428630000000     0.0560023  
H59      H      0.472330000000     0.340560000000     0.536400000000     0.0447916  
H60      H      0.569810000000     0.296270000000     0.469990000000     0.0676272  
H61      H      0.459240000000     0.189650000000     0.481270000000     0.0589362  
H62      H      0.559940000000     0.142210000000     0.448090000000     0.0599007  
H63      H      0.493680000000     0.320110000000     0.427180000000     0.0364423  
H64      H      0.591480000000     0.135110000000     0.549780000000     0.155732   
H65      H      0.557050000000     0.712510000000     0.067850000000     0.0539134  
H66      H      0.509060000000     0.813290000000     0.964260000000     0.0446875  
H67      H      0.456300000000     0.680970000000     0.004740000000     0.0342435  
H68      H      0.489040000000     0.729500000000     0.959250000000     0.0537499  
H69      H      0.455900000000     0.769610000000     0.992530000000     0.048318   
H70      H      0.558650000000     0.773710000000     0.071060000000     0.0579517  
H71      H      0.548740000000     0.640710000000     0.059660000000     0.0452826  
H72      H      0.465540000000     0.839590000000     0.978160000000     0.0440003  
H73      H      0.532400000000     0.701250000000     0.960320000000     0.0677679  
H74      H      0.512750000000     0.795310000000     0.083360000000     0.052587   
H75      H      0.473260000000     0.659130000000     0.959890000000     0.0467662  
H76      H      0.575130000000     0.695260000000     0.021710000000     0.0679188  
H77      H      0.456600000000     0.797380000000     0.035920000000     0.0563653  
H78      H      0.555470000000     0.847270000000     0.065300000000     0.0583292  
H79      H      0.504050000000     0.666660000000     0.069930000000     0.0341533  
H80      H      0.587470000000     0.866010000000     0.967120000000     0.156288   
H81      H      0.553670000000     0.274330000000     0.970730000000     0.0652033  
H82      H      0.507260000000     0.175090000000     0.063370000000     0.0516571  
H83      H      0.435290000000     0.318900000000     0.980600000000     0.0410796  
H84      H      0.441940000000     0.278330000000     0.036730000000     0.0540451  
H85      H      0.455780000000     0.220030000000     0.052050000000     0.0557663  
H86      H      0.531910000000     0.222480000000     0.947550000000     0.0579958  
H87      H      0.542200000000     0.342460000000     0.950920000000     0.0479005  
H88      H      0.463170000000     0.148210000000     0.054180000000     0.0565212  
H89      H      0.484280000000     0.304160000000     0.055080000000     0.0654182  
H90      H      0.487830000000     0.195870000000     0.947420000000     0.0605592  
H91      H      0.438140000000     0.349250000000     0.023350000000     0.0527112  
H92      H      0.548840000000     0.304450000000     0.012230000000     0.0736722  
H93      H      0.439220000000     0.196550000000     0.007780000000     0.0598685  
H94      H      0.541410000000     0.151320000000     0.955800000000     0.0618169  
H95      H      0.500770000000     0.312930000000     0.936420000000     0.0370266  
H96      H      0.583290000000     0.135280000000     0.049820000000     0.156625   
H97      H      0.501240000000     0.050230000000     0.731490000000     0.065282   
H98      H      0.459230000000     0.965030000000     0.829380000000     0.0454668  
H99      H      0.571180000000     0.958930000000     0.683930000000     0.0365356  
H100     H      0.527930000000     0.923960000000     0.727460000000     0.0499613  
H101     H      0.496790000000     0.926090000000     0.784400000000     0.0507546  
H102     H      0.540470000000     0.047400000000     0.779670000000     0.0572935  
H103     H      0.513740000000     0.053660000000     0.660000000000     0.0466541  
H104     H      0.490200000000     0.931950000000     0.856110000000     0.0434212  
H105     H      0.484080000000     0.940880000000     0.702820000000     0.060003   
H106     H      0.567850000000     0.011500000000     0.804720000000     0.0565963  
H107     H      0.537660000000     0.929170000000     0.655960000000     0.0445009  
H108     H      0.469590000000     0.018860000000     0.704780000000     0.0697151  
H109     H      0.543060000000     0.937240000000     0.807930000000     0.0566924  
H110     H      0.535100000000     0.049440000000     0.852760000000     0.0604281  
H111     H      0.556140000000     0.036690000000     0.686330000000     0.0358102  
H112     H      0.432230000000     0.036380000000     0.872900000000     0.155859   
H113     H      0.435760000000     0.990860000000     0.286790000000     0.053566   
H114     H      0.554430000000     0.027380000000     0.186260000000     0.0434616  
H115     H      0.551220000000     0.963040000000     0.324830000000     0.0339437  
H116     H      0.562090000000     0.017770000000     0.278700000000     0.0563686  
H117     H      0.558770000000     0.973720000000     0.234330000000     0.0502868  
H118     H      0.436770000000     0.016290000000     0.228230000000     0.0617006  
H119     H      0.443300000000     0.980560000000     0.357640000000     0.0456282  
H120     H      0.563840000000     0.981710000000     0.162220000000     0.0457049  
H121     H      0.530960000000     0.048850000000     0.306320000000     0.0702256  
H122     H      0.448840000000     0.969970000000     0.206180000000     0.0570534  
H123     H      0.567510000000     0.005980000000     0.350590000000     0.0461251  
H124     H      0.454260000000     0.034300000000     0.310830000000     0.0663832  
H125     H      0.523100000000     0.945940000000     0.208690000000     0.0576093  
H126     H      0.443180000000     0.017980000000     0.155570000000     0.0674503  
H127     H      0.472210000000     0.947120000000     0.328750000000     0.0359307  
H128     H      0.519560000000     0.090000000000     0.140030000000     0.155067   
H129     H      0.728260000000     0.563850000000     0.516830000000     0.0663455  
H130     H      0.830320000000     0.485400000000     0.556740000000     0.0541129  
H131     H      0.689710000000     0.472580000000     0.441990000000     0.0369483  
H132     H      0.730760000000     0.437860000000     0.488270000000     0.0512884  
H133     H      0.787160000000     0.443150000000     0.520210000000     0.052893   
H134     H      0.776230000000     0.563900000000     0.476490000000     0.0576882  
H135     H      0.656990000000     0.564760000000     0.499300000000     0.0462036  
H136     H      0.858440000000     0.452360000000     0.527030000000     0.0483457  
H137     H      0.701920000000     0.453780000000     0.529680000000     0.0616605  
H138     H      0.802270000000     0.529200000000     0.448440000000     0.0562526  
H139     H      0.660100000000     0.440910000000     0.472200000000     0.0454885  
H140     H      0.700250000000     0.530740000000     0.545460000000     0.0701239  
H141     H      0.810100000000     0.454960000000     0.473930000000     0.0568554  
H142     H      0.850120000000     0.568680000000     0.479420000000     0.0615204  
H143     H      0.687250000000     0.550230000000     0.458780000000     0.034949   
H144     H      0.874120000000     0.558070000000     0.579600000000     0.16463    
H145     H      0.286950000000     0.481280000000     0.571960000000     0.0524926  
H146     H      0.194320000000     0.537580000000     0.457680000000     0.042486   
H147     H      0.322340000000     0.457980000000     0.457730000000     0.0337399  
H148     H      0.279460000000     0.516260000000     0.448370000000     0.054861   
H149     H      0.231970000000     0.475250000000     0.450140000000     0.0506099  
H150     H      0.229930000000     0.512350000000     0.573400000000     0.058637   
H151     H      0.359180000000     0.471090000000     0.563590000000     0.045018   
H152     H      0.163140000000     0.497880000000     0.443180000000     0.046812   
H153     H      0.309180000000     0.544160000000     0.480570000000     0.0713765  
H154     H      0.201350000000     0.470800000000     0.558270000000     0.0536856  
H155     H      0.349880000000     0.499580000000     0.440810000000     0.0443638  
H156     H      0.312260000000     0.525430000000     0.557010000000     0.0668861  
H157     H      0.200430000000     0.451540000000     0.483830000000     0.0598206  
H158     H      0.157370000000     0.524830000000     0.565850000000     0.0571323  
H159     H      0.329050000000     0.439220000000     0.534120000000     0.0361163  
H160     H      0.154510000000     0.603140000000     0.495170000000     0.154511   
H161     H      0.707910000000     0.435540000000     0.968330000000     0.0612043  
H162     H      0.815400000000     0.547800000000     0.986330000000     0.0458629  
H163     H      0.673020000000     0.514490000000     0.030020000000     0.0440434  
H164     H      0.729410000000     0.553010000000     0.003940000000     0.0541173  
H165     H      0.770440000000     0.528020000000     0.041760000000     0.0507808  
H166     H      0.779060000000     0.430360000000     0.957970000000     0.0587453  
H167     H      0.671150000000     0.498990000000     0.916730000000     0.041036   
H168     H      0.840760000000     0.542070000000     0.031820000000     0.0459042  
H169     H      0.712330000000     0.547570000000     0.955570000000     0.0682498  
H170     H      0.801120000000     0.429660000000     0.004890000000     0.0566203  
H171     H      0.656870000000     0.555250000000     0.001080000000     0.0429868  
H172     H      0.727330000000     0.459080000000     0.925000000000     0.0680824  
H173     H      0.799180000000     0.485930000000     0.049840000000     0.0598416  
H174     H      0.852870000000     0.440440000000     0.959240000000     0.0588864  
H175     H      0.651510000000     0.452540000000     0.931430000000     0.0471762  
H176     H      0.872460000000     0.527910000000     0.908280000000     0.157621   
H177     H      0.224520000000     0.471430000000     0.029580000000     0.0652741  
H178     H      0.323010000000     0.514590000000     0.932160000000     0.0500883  
H179     H      0.176730000000     0.587930000000     0.012920000000     0.0341775  
H180     H      0.220050000000     0.580190000000     0.959260000000     0.0497366  
H181     H      0.278870000000     0.566300000000     0.944240000000     0.0521481  
H182     H      0.276330000000     0.494310000000     0.051490000000     0.0547844  
H183     H      0.156370000000     0.482780000000     0.048290000000     0.0479214  
H184     H      0.351650000000     0.557210000000     0.942520000000     0.0515978  
H185     H      0.195920000000     0.536820000000     0.941010000000     0.0622251  
H186     H      0.305500000000     0.536440000000     0.048120000000     0.053948   
H187     H      0.147780000000     0.581790000000     0.969530000000     0.0443376  
H188     H      0.195130000000     0.473680000000     0.987320000000     0.0720184  
H189     H      0.303600000000     0.583070000000     0.987640000000     0.054343   
H190     H      0.345670000000     0.479170000000     0.040410000000     0.0577565  
H191     H      0.184620000000     0.525910000000     0.060050000000     0.0353233  
H192     H      0.358720000000     0.432910000000     0.949440000000     0.156564   
H193     H      0.965830000000     0.460680000000     0.775470000000     0.063937   
H194     H      0.989320000000     0.564960000000     0.677890000000     0.0461179  
H195     H      0.073490000000     0.498610000000     0.825880000000     0.0347432  
H196     H      0.061440000000     0.547930000000     0.779060000000     0.0497993  
H197     H      0.042880000000     0.563550000000     0.722050000000     0.0513422  
H198     H      0.987230000000     0.446420000000     0.720950000000     0.056803   
H199     H      0.972580000000     0.452970000000     0.846200000000     0.0521538  
H200     H      0.034500000000     0.567290000000     0.651410000000     0.048167   
H201     H      0.014780000000     0.562400000000     0.799840000000     0.062511   
H202     H      0.031540000000     0.454300000000     0.695960000000     0.0546843  
H203     H      0.061530000000     0.543420000000     0.850700000000     0.0448293  
H204     H      0.956990000000     0.505650000000     0.799620000000     0.0771559  
H205     H      0.067630000000     0.523770000000     0.697480000000     0.0574236  
H206     H      0.979300000000     0.453920000000     0.649520000000     0.0581231  
H207     H      0.018600000000     0.443400000000     0.821960000000     0.0356605  
H208     H      0.920850000000     0.540650000000     0.636310000000     0.156749   
H209     H      0.024500000000     0.466700000000     0.274230000000     0.0698997  
H210     H      0.932810000000     0.506880000000     0.172530000000     0.0461539  
H211     H      0.994920000000     0.581790000000     0.322000000000     0.0424094  
H212     H      0.941030000000     0.565890000000     0.280320000000     0.0533042  
H213     H      0.934720000000     0.557080000000     0.219950000000     0.0523118  
H214     H      0.049430000000     0.497050000000     0.227430000000     0.0568861  
H215     H      0.042770000000     0.479900000000     0.342340000000     0.054778   
H216     H      0.939050000000     0.552660000000     0.147900000000     0.0458267  
H217     H      0.930760000000     0.520300000000     0.304520000000     0.0630207  
H218     H      0.043990000000     0.541200000000     0.201790000000     0.0561541  
H219     H      0.953200000000     0.569370000000     0.351560000000     0.0535435  
H220     H      0.982620000000     0.465240000000     0.304340000000     0.0742474  
H221     H      0.978100000000     0.580060000000     0.200390000000     0.0580008  
H222     H      0.046770000000     0.488330000000     0.155960000000     0.0586154  
H223     H      0.051070000000     0.523610000000     0.313910000000     0.0376223  
H224     H      0.963370000000     0.431240000000     0.131580000000     0.156636   
H225     H      0.950300000000     0.795480000000     0.537770000000     0.0567092  
H226     H      0.061910000000     0.694760000000     0.476410000000     0.0440003  
H227     H      0.066970000000     0.838770000000     0.549760000000     0.034061   
H228     H      0.072270000000     0.792410000000     0.495960000000     0.0558202  
H229     H      0.071960000000     0.740100000000     0.530380000000     0.0529015  
H230     H      0.947240000000     0.742870000000     0.497250000000     0.0630891  
H231     H      0.956890000000     0.866180000000     0.550270000000     0.0572788  
H232     H      0.071730000000     0.667400000000     0.519910000000     0.0523852  
H233     H      0.037490000000     0.818650000000     0.467420000000     0.0707957  
H234     H      0.960480000000     0.715990000000     0.540590000000     0.0598509  
H235     H      0.075550000000     0.865470000000     0.505320000000     0.044746   
H236     H      0.960960000000     0.822070000000     0.493180000000     0.0700485  
H237     H      0.037780000000     0.714830000000     0.560450000000     0.0601286  
H238     H      0.949600000000     0.670470000000     0.488320000000     0.0628182  
H239     H      0.992470000000     0.837310000000     0.576710000000     0.0379706  
H240     H      0.023600000000     0.657530000000     0.413740000000     0.154324   
H241     H      0.079830000000     0.238730000000     0.506920000000     0.0555585  
H242     H      0.963190000000     0.338390000000     0.457720000000     0.0425475  
H243     H      0.962020000000     0.206290000000     0.533450000000     0.034148   
H244     H      0.955800000000     0.241050000000     0.470130000000     0.0579504  
H245     H      0.955870000000     0.289990000000     0.509850000000     0.0511663  
H246     H      0.078690000000     0.293780000000     0.470680000000     0.0611319  
H247     H      0.070280000000     0.171510000000     0.532090000000     0.0534422  
H248     H      0.952390000000     0.362480000000     0.502860000000     0.0449136  
H249     H      0.988750000000     0.207620000000     0.447720000000     0.0715045  
H250     H      0.067380000000     0.316570000000     0.516810000000     0.0542696  
H251     H      0.948530000000     0.172270000000     0.495630000000     0.0473926  
H252     H      0.063790000000     0.205940000000     0.468710000000     0.0700975  
H253     H      0.990530000000     0.314720000000     0.539880000000     0.058896   
H254     H      0.073920000000     0.367550000000     0.469050000000     0.0559219  
H255     H      0.038550000000     0.206600000000     0.555700000000     0.0367763  
H256     H      0.995490000000     0.382070000000     0.398080000000     0.155815   
H257     H      0.739830000000     0.936420000000     0.549020000000     0.063265   
H258     H      0.834560000000     0.012530000000     0.465890000000     0.0539339  
H259     H      0.689830000000     0.043610000000     0.500940000000     0.0448755  
H260     H      0.741710000000     0.022530000000     0.453050000000     0.0574386  
H261     H      0.779850000000     0.057470000000     0.485320000000     0.0540916  
H262     H      0.786430000000     0.965060000000     0.575220000000     0.0579551  
H263     H      0.666670000000     0.938220000000     0.546400000000     0.046266   
H264     H      0.852630000000     0.058700000000     0.483380000000     0.051984   
H265     H      0.720680000000     0.975570000000     0.450130000000     0.0661118  
H266     H      0.802430000000     0.013470000000     0.581270000000     0.055576   
H267     H      0.669070000000     0.025340000000     0.456200000000     0.0502082  
H268     H      0.721420000000     0.927960000000     0.501670000000     0.0692756  
H269     H      0.800360000000     0.063500000000     0.532040000000     0.0590692  
H270     H      0.859390000000     0.973600000000     0.574030000000     0.0588394  
H271     H      0.686990000000     0.983520000000     0.563900000000     0.0384413  
H272     H      0.898110000000     0.930830000000     0.489540000000     0.158957   
H273     H      0.295650000000     0.056920000000     0.574190000000     0.0524672  
H274     H      0.193890000000     0.017180000000     0.462590000000     0.0444383  
H275     H      0.326990000000     0.955310000000     0.517450000000     0.0422695  
H276     H      0.285440000000     0.987880000000     0.465380000000     0.0546384  
H277     H      0.235820000000     0.963630000000     0.491280000000     0.0510745  
H278     H      0.235970000000     0.070270000000     0.564810000000     0.0580866  
H279     H      0.368070000000     0.046500000000     0.571670000000     0.0458998  
H280     H      0.166150000000     0.974900000000     0.477490000000     0.0449333  
H281     H      0.315760000000     0.029690000000     0.467570000000     0.0672645  
H282     H      0.212650000000     0.026370000000     0.581630000000     0.0536877  
H283     H      0.353610000000     0.967710000000     0.473730000000     0.0504699  
H284     H      0.317700000000     0.074930000000     0.529870000000     0.0656301  
H285     H      0.208760000000     0.965690000000     0.535070000000     0.0581723  
H286     H      0.162790000000     0.069930000000     0.560000000000     0.0589536  
H287     H      0.339230000000     0.003350000000     0.580680000000     0.037503   
H288     H      0.148980000000     0.088420000000     0.456080000000     0.156224   
H289     H      0.930000000000     0.730400000000     0.038260000000     0.0543308  
H290     H      0.048970000000     0.825070000000     0.003030000000     0.0423128  
H291     H      0.982660000000     0.693120000000     0.937300000000     0.0356656  
H292     H      0.035300000000     0.736640000000     0.963280000000     0.0510402  
H293     H      0.014310000000     0.791210000000     0.947510000000     0.0485437  
H294     H      0.945820000000     0.787260000000     0.057360000000     0.0615884  
H295     H      0.930100000000     0.658320000000     0.030250000000     0.0463527  
H296     H      0.035000000000     0.857560000000     0.964170000000     0.0435109  
H297     H      0.037720000000     0.709170000000     0.006950000000     0.0669099  
H298     H      0.928900000000     0.815610000000     0.016740000000     0.0629032  
H299     H      0.027160000000     0.667040000000     0.949090000000     0.044216   
H300     H      0.974480000000     0.708050000000     0.056600000000     0.0682826  
H301     H      0.972880000000     0.821300000000     0.954440000000     0.0597446  
H302     H      0.956760000000     0.859540000000     0.062870000000     0.0669872  
H303     H      0.922490000000     0.685790000000     0.986170000000     0.036616   
H304     H      0.063120000000     0.862550000000     0.076240000000     0.15488    
H305     H      0.062220000000     0.295710000000     0.068590000000     0.0607619  
H306     H      0.959140000000     0.195690000000     0.022030000000     0.0473951  
H307     H      0.006440000000     0.323520000000     0.961300000000     0.0355161  
H308     H      0.955060000000     0.282560000000     0.996680000000     0.0555237  
H309     H      0.984600000000     0.238100000000     0.966630000000     0.0506911  
H310     H      0.069300000000     0.235720000000     0.064600000000     0.0601147  
H311     H      0.063030000000     0.366020000000     0.051600000000     0.0526122  
H312     H      0.970580000000     0.168640000000     0.978460000000     0.0479315  
H313     H      0.958240000000     0.314270000000     0.037040000000     0.0693013  
H314     H      0.078540000000     0.213510000000     0.018770000000     0.0546381  
H315     H      0.963310000000     0.351000000000     0.974810000000     0.0469468  
H316     H      0.016820000000     0.318870000000     0.080160000000     0.0766975  
H317     H      0.028320000000     0.210640000000     0.965820000000     0.0574997  
H318     H      0.062900000000     0.162590000000     0.063430000000     0.0595833  
H319     H      0.071680000000     0.334910000000     0.010190000000     0.036792   
H320     H      0.966010000000     0.144070000000     0.099300000000     0.158111   
H321     H      0.735140000000     0.945850000000     0.044310000000     0.0687202  
H322     H      0.832330000000     0.019350000000     0.967090000000     0.0538004  
H323     H      0.685210000000     0.057540000000     0.002070000000     0.0446188  
H324     H      0.737160000000     0.038660000000     0.954670000000     0.0570078  
H325     H      0.780690000000     0.067510000000     0.985750000000     0.0543651  
H326     H      0.778650000000     0.974650000000     0.075340000000     0.058786   
H327     H      0.663060000000     0.951830000000     0.046950000000     0.0538835  
H328     H      0.853170000000     0.063830000000     0.985710000000     0.052684   
H329     H      0.716280000000     0.991920000000     0.948430000000     0.0668432  
H330     H      0.798390000000     0.021480000000     0.081600000000     0.0571294  
H331     H      0.663870000000     0.039960000000     0.957370000000     0.0508678  
H332     H      0.714240000000     0.941840000000     0.997500000000     0.0754816  
H333     H      0.800300000000     0.071880000000     0.033100000000     0.0601186  
H334     H      0.852350000000     0.977440000000     0.075240000000     0.0601245  
H335     H      0.685580000000     0.996600000000     0.063330000000     0.0394096  
H336     H      0.888950000000     0.931910000000     0.990580000000     0.157833   
H337     H      0.235550000000     0.025160000000     0.057100000000     0.0676123  
H338     H      0.333180000000     0.934730000000     0.005070000000     0.0447817  
H339     H      0.180130000000     0.007660000000     0.943970000000     0.0340842  
H340     H      0.222710000000     0.952550000000     0.950900000000     0.0490457  
H341     H      0.283590000000     0.942550000000     0.957600000000     0.0497153  
H342     H      0.281400000000     0.051940000000     0.026390000000     0.0567771  
H343     H      0.166180000000     0.043850000000     0.050830000000     0.0485068  
H344     H      0.356680000000     0.945100000000     0.959510000000     0.0438113  
H345     H      0.201170000000     0.936990000000     0.996330000000     0.0610891  
H346     H      0.305910000000     0.049160000000     0.981430000000     0.0566136  
H347     H      0.151070000000     0.964730000000     0.953190000000     0.0439707  
H348     H      0.205510000000     0.983110000000     0.056830000000     0.0713438  
H349     H      0.303820000000     0.987030000000     0.937620000000     0.0553507  
H350     H      0.353320000000     0.046440000000     0.032850000000     0.0608983  
H351     H      0.191750000000     0.056800000000     0.006590000000     0.0359111  
H352     H      0.377200000000     0.959120000000     0.083580000000     0.154807   
H353     H      0.022520000000     0.088960000000     0.742630000000     0.0508476  
H354     H      0.967660000000     0.972100000000     0.836990000000     0.0418736  
H355     H      0.039840000000     0.973700000000     0.701770000000     0.0327269  
H356     H      0.981750000000     0.966490000000     0.744610000000     0.0551004  
H357     H      0.023310000000     0.964360000000     0.791550000000     0.0486714  
H358     H      0.989420000000     0.088650000000     0.799090000000     0.0585982  
H359     H      0.034540000000     0.082850000000     0.671210000000     0.0442285  
H360     H      0.011020000000     0.957730000000     0.862860000000     0.0426991  
H361     H      0.955260000000     0.001410000000     0.716660000000     0.0699637  
H362     H      0.033830000000     0.073200000000     0.823090000000     0.0528663  
H363     H      0.996990000000     0.961780000000     0.673520000000     0.0455792  
H364     H      0.978250000000     0.076790000000     0.716030000000     0.0647128  
H365     H      0.052680000000     0.996800000000     0.819620000000     0.0564535  
H366     H      0.983930000000     0.080600000000     0.871810000000     0.0565168  
H367     H      0.063710000000     0.049790000000     0.700380000000     0.0354341  
H368     H      0.907260000000     0.007540000000     0.880870000000     0.155239   
H369     H      0.036990000000     0.073520000000     0.241030000000     0.0570148  
H370     H      0.979010000000     0.962960000000     0.345370000000     0.0444584  
H371     H      0.042490000000     0.956750000000     0.196350000000     0.0410279  
H372     H      0.992360000000     0.953010000000     0.246560000000     0.0589335  
H373     H      0.030030000000     0.952830000000     0.296850000000     0.0534181  
H374     H      0.997640000000     0.077420000000     0.295640000000     0.063158   
H375     H      0.044210000000     0.066980000000     0.169480000000     0.0547764  
H376     H      0.024370000000     0.953460000000     0.369950000000     0.0460672  
H377     H      0.962440000000     0.988480000000     0.222800000000     0.0734535  
H378     H      0.042490000000     0.064000000000     0.320140000000     0.0580068  
H379     H      0.995700000000     0.950130000000     0.173080000000     0.0546866  
H380     H      0.990190000000     0.064290000000     0.217580000000     0.0712527  
H381     H      0.062150000000     0.986700000000     0.320030000000     0.0594945  
H382     H      0.992450000000     0.075180000000     0.368430000000     0.0586938  
H383     H      0.072080000000     0.030840000000     0.196270000000     0.0404822  
H384     H      0.917600000000     0.001570000000     0.385090000000     0.156323   
N1       N      0.495810000000     0.504040000000     0.840750000000    -0.160272   
N2       N      0.525660000000     0.497910000000     0.637910000000    -0.163983   
N3       N      0.505550000000     0.479440000000     0.137270000000    -0.160534   
N4       N      0.506620000000     0.503200000000     0.341730000000    -0.16475    
N5       N      0.495960000000     0.846050000000     0.497780000000    -0.159867   
N6       N      0.491610000000     0.645350000000     0.487770000000    -0.164089   
N7       N      0.522110000000     0.142980000000     0.498590000000    -0.159903   
N8       N      0.503510000000     0.347750000000     0.481670000000    -0.163782   
N9       N      0.516120000000     0.847420000000     0.015990000000    -0.160105   
N10      N      0.507260000000     0.645520000000     0.011780000000    -0.164017   
N11      N      0.507430000000     0.145980000000     0.008610000000    -0.159011   
N12      N      0.489040000000     0.349870000000     0.985100000000    -0.163159   
N13      N      0.506850000000     0.993110000000     0.858240000000    -0.160203   
N14      N      0.527620000000     0.991850000000     0.654070000000    -0.164116   
N15      N      0.505140000000     0.005410000000     0.155070000000    -0.16031    
N16      N      0.506180000000     0.990340000000     0.357930000000    -0.164784   
N17      N      0.858120000000     0.513100000000     0.508390000000    -0.159898   
N18      N      0.654910000000     0.503190000000     0.483470000000    -0.164912   
N19      N      0.157190000000     0.517210000000     0.503380000000    -0.160567   
N20      N      0.358280000000     0.483420000000     0.501630000000    -0.164412   
N21      N      0.850720000000     0.496210000000     0.988740000000    -0.159655   
N22      N      0.649210000000     0.498820000000     0.974660000000    -0.163568   
N23      N      0.351960000000     0.511980000000     0.986920000000    -0.15966    
N24      N      0.147940000000     0.532980000000     0.010230000000    -0.164701   
N25      N      0.001910000000     0.512770000000     0.646550000000    -0.159831   
N26      N      0.017470000000     0.497500000000     0.852650000000    -0.163625   
N27      N      0.989520000000     0.513930000000     0.147830000000    -0.159898   
N28      N      0.000920000000     0.527170000000     0.350890000000    -0.162411   
N29      N      0.011720000000     0.665510000000     0.498870000000    -0.160132   
N30      N      0.016930000000     0.869590000000     0.529570000000    -0.164133   
N31      N      0.012130000000     0.368690000000     0.481630000000    -0.161202   
N32      N      0.008560000000     0.168600000000     0.516540000000    -0.16404    
N33      N      0.861350000000     0.009270000000     0.522090000000    -0.158086   
N34      N      0.662980000000     0.987500000000     0.506710000000    -0.16265    
N35      N      0.160440000000     0.026180000000     0.514430000000    -0.160353   
N36      N      0.364990000000     0.004370000000     0.524420000000    -0.162987   
N37      N      0.000500000000     0.861920000000     0.017320000000    -0.159749   
N38      N      0.978250000000     0.658510000000     0.988720000000    -0.16395    
N39      N      0.011510000000     0.161670000000     0.026570000000    -0.160282   
N40      N      0.015720000000     0.362320000000     0.009150000000    -0.16331    
N41      N      0.857690000000     0.013180000000     0.023720000000    -0.157837   
N42      N      0.658790000000     0.001300000000     0.007290000000    -0.161842   
N43      N      0.359150000000     0.991210000000     0.002850000000    -0.159935   
N44      N      0.154470000000     0.007140000000     0.000380000000    -0.164037   
N45      N      0.992490000000     0.018080000000     0.870870000000    -0.161559   
N46      N      0.018100000000     0.021650000000     0.668730000000    -0.164596   
N47      N      0.003090000000     0.013250000000     0.372920000000    -0.159996   
N48      N      0.021980000000     0.007640000000     0.167440000000    -0.161795   
O1       O      0.006620000000     0.011730000000     0.019230000000    -0.368496   
O2       O      0.992060000000     0.986110000000     0.111270000000    -0.293478   
O3       O      0.099810000000     0.029820000000     0.032650000000    -0.300499   
O4       O      0.023260000000     0.920280000000     0.992570000000    -0.304106   
O5       O      0.038210000000     0.032080000000     0.107320000000    -0.297285   
O6       O      0.982000000000     0.921480000000     0.042650000000    -0.291198   
O7       O      0.092210000000     0.986890000000     0.984320000000    -0.302861   
O8       O      0.981150000000     0.042740000000     0.932010000000    -0.297933   
O9       O      0.035690000000     0.101000000000     0.043120000000    -0.297465   
O10      O      0.015710000000     0.987910000000     0.926190000000    -0.304866   
O11      O      0.984680000000     0.104610000000     0.003100000000    -0.303128   
O12      O      0.916490000000     0.036940000000     0.001150000000    -0.298817   
O13      O      0.917020000000     0.991530000000     0.047770000000    -0.291918   
O14      O      0.011000000000     0.018820000000     0.520600000000    -0.369548   
O15      O      0.987440000000     0.041420000000     0.431600000000    -0.291924   
O16      O      0.101930000000     0.999560000000     0.493400000000    -0.301229   
O17      O      0.034630000000     0.110500000000     0.537300000000    -0.301588   
O18      O      0.027190000000     0.989500000000     0.431050000000    -0.298551   
O19      O      0.981750000000     0.109230000000     0.499470000000    -0.298881   
O20      O      0.101110000000     0.044790000000     0.540010000000    -0.299672   
O21      O      0.994460000000     0.995690000000     0.611680000000    -0.302474   
O22      O      0.040040000000     0.927540000000     0.504270000000    -0.301737   
O23      O      0.034350000000     0.047270000000     0.609020000000    -0.303418   
O24      O      0.989660000000     0.928680000000     0.545340000000    -0.300005   
O25      O      0.921860000000     0.993770000000     0.547310000000    -0.29679    
O26      O      0.918540000000     0.036250000000     0.498300000000    -0.296279   
O27      O      0.999780000000     0.510730000000     0.999460000000    -0.367243   
O28      O      0.029180000000     0.529010000000     0.910690000000    -0.302986   
O29      O      0.986570000000     0.416880000000     0.982690000000    -0.301195   
O30      O      0.091650000000     0.500570000000     0.028060000000    -0.302387   
O31      O      0.987660000000     0.478720000000     0.909870000000    -0.296701   
O32      O      0.087940000000     0.547340000000     0.983200000000    -0.303805   
O33      O      0.033010000000     0.424710000000     0.027530000000    -0.29756    
O34      O      0.967790000000     0.533060000000     0.087150000000    -0.302865   
O35      O      0.913070000000     0.477020000000     0.971290000000    -0.294904   
O36      O      0.020150000000     0.494440000000     0.091320000000    -0.29653    
O37      O      0.905900000000     0.524570000000     0.014880000000    -0.304637   
O38      O      0.964390000000     0.598770000000     0.016340000000    -0.303102   
O39      O      0.010750000000     0.602280000000     0.970860000000    -0.303254   
O40      O      0.007460000000     0.516620000000     0.498510000000    -0.372062   
O41      O      0.978680000000     0.544380000000     0.411900000000    -0.296134   
O42      O      0.099420000000     0.502140000000     0.472150000000    -0.3018     
O43      O      0.035780000000     0.606110000000     0.519690000000    -0.297373   
O44      O      0.028310000000     0.502300000000     0.406890000000    -0.297798   
O45      O      0.982340000000     0.607550000000     0.482530000000    -0.294011   
O46      O      0.097130000000     0.533490000000     0.528910000000    -0.297296   
O47      O      0.987760000000     0.485130000000     0.586860000000    -0.294924   
O48      O      0.036570000000     0.429980000000     0.468920000000    -0.294529   
O49      O      0.023450000000     0.539700000000     0.588990000000    -0.301608   
O50      O      0.986870000000     0.423700000000     0.510580000000    -0.303406   
O51      O      0.918980000000     0.487910000000     0.521750000000    -0.301473   
O52      O      0.914690000000     0.540970000000     0.484580000000    -0.297171   
O53      O      0.509090000000     0.996520000000     0.006730000000    -0.368977   
O54      O      0.419490000000     0.967720000000     0.983320000000    -0.30285    
O55      O      0.479630000000     0.018670000000     0.094720000000    -0.292994   
O56      O      0.535570000000     0.908670000000     0.036400000000    -0.295611   
O57      O      0.416990000000     0.018200000000     0.024080000000    -0.296471   
O58      O      0.490860000000     0.903840000000     0.989440000000    -0.30506    
O59      O      0.533790000000     0.982660000000     0.098670000000    -0.302425   
O60      O      0.599420000000     0.021640000000     0.982060000000    -0.294961   
O61      O      0.483950000000     0.086440000000     0.029380000000    -0.297012   
O62      O      0.600040000000     0.978470000000     0.030610000000    -0.299101   
O63      O      0.529880000000     0.087710000000     0.983450000000    -0.293579   
O64      O      0.527990000000     0.020140000000     0.915970000000    -0.296429   
O65      O      0.489770000000     0.967300000000     0.917740000000    -0.303721   
O66      O      0.513480000000     0.994200000000     0.506390000000    -0.368979   
O67      O      0.427770000000     0.022950000000     0.541480000000    -0.30076    
O68      O      0.479630000000     0.978780000000     0.418200000000    -0.305126   
O69      O      0.540520000000     0.081600000000     0.477640000000    -0.295109   
O70      O      0.419270000000     0.981830000000     0.492010000000    -0.301225   
O71      O      0.498640000000     0.086680000000     0.527150000000    -0.302734   
O72      O      0.537500000000     0.008600000000     0.414480000000    -0.302446   
O73      O      0.602940000000     0.963720000000     0.526740000000    -0.300132   
O74      O      0.478300000000     0.908920000000     0.481870000000    -0.298332   
O75      O      0.604870000000     0.011250000000     0.482460000000    -0.298913   
O76      O      0.528920000000     0.899920000000     0.521730000000    -0.302326   
O77      O      0.535610000000     0.963320000000     0.593980000000    -0.302029   
O78      O      0.506310000000     0.021510000000     0.597740000000    -0.301022   
O79      O      0.500870000000     0.498420000000     0.989390000000    -0.369887   
O80      O      0.532150000000     0.503530000000     0.080400000000    -0.298517   
O81      O      0.408580000000     0.484530000000     0.010550000000    -0.299436   
O82      O      0.485830000000     0.592260000000     0.976720000000    -0.30123    
O83      O      0.474810000000     0.472680000000     0.078060000000    -0.304096   
O84      O      0.527150000000     0.582750000000     0.026080000000    -0.302584   
O85      O      0.413170000000     0.530650000000     0.965040000000    -0.29685    
O86      O      0.513590000000     0.473970000000     0.898040000000    -0.302666   
O87      O      0.468520000000     0.410100000000     0.006880000000    -0.298293   
O88      O      0.484320000000     0.532150000000     0.900630000000    -0.293934   
O89      O      0.518820000000     0.407020000000     0.965670000000    -0.301124   
O90      O      0.588600000000     0.474440000000     0.957490000000    -0.300065   
O91      O      0.593110000000     0.516110000000     0.007230000000    -0.301476   
O92      O      0.506170000000     0.496690000000     0.490290000000    -0.369991   
O93      O      0.420240000000     0.472090000000     0.525520000000    -0.300794   
O94      O      0.471690000000     0.584050000000     0.467460000000    -0.300487   
O95      O      0.535200000000     0.524670000000     0.577190000000    -0.302365   
O96      O      0.413190000000     0.506600000000     0.470770000000    -0.303486   
O97      O      0.498800000000     0.470870000000     0.582620000000    -0.302024   
O98      O      0.521600000000     0.589160000000     0.508880000000    -0.305293   
O99      O      0.596600000000     0.472920000000     0.469580000000    -0.303982   
O100     O      0.477630000000     0.515930000000     0.400780000000    -0.304369   
O101     O      0.595790000000     0.528990000000     0.502700000000    -0.302728   
O102     O      0.532710000000     0.481100000000     0.399540000000    -0.302273   
O103     O      0.526450000000     0.407590000000     0.461020000000    -0.302276   
O104     O      0.487540000000     0.405170000000     0.513030000000    -0.301935   
O105     O      0.424510000000     0.512360000000     0.770400000000    -0.181925   
O106     O      0.421790000000     0.587300000000     0.795780000000    -0.16781    
O107     O      0.407780000000     0.527860000000     0.846960000000    -0.258989   
O108     O      0.541460000000     0.410660000000     0.200910000000    -0.180508   
O109     O      0.611450000000     0.440810000000     0.178980000000    -0.167396   
O110     O      0.562800000000     0.409810000000     0.123930000000    -0.259575   
O111     O      0.430910000000     0.790730000000     0.544870000000    -0.181496   
O112     O      0.380280000000     0.812020000000     0.487900000000    -0.170459   
O113     O      0.412670000000     0.868030000000     0.534430000000    -0.261231   
O114     O      0.588950000000     0.211580000000     0.528150000000    -0.181653   
O115     O      0.631250000000     0.182940000000     0.467770000000    -0.167529   
O116     O      0.608460000000     0.133850000000     0.526210000000    -0.261062   
O117     O      0.583400000000     0.787570000000     0.977080000000    -0.181882   
O118     O      0.626790000000     0.805790000000     0.040620000000    -0.168045   
O119     O      0.604140000000     0.863720000000     0.990840000000    -0.259343   
O120     O      0.571600000000     0.214060000000     0.041300000000    -0.177357   
O121     O      0.609720000000     0.199600000000     0.973600000000    -0.167693   
O122     O      0.598680000000     0.140310000000     0.025660000000    -0.258985   
O123     O      0.442900000000     0.033250000000     0.794400000000    -0.184148   
O124     O      0.482300000000     0.100340000000     0.809420000000    -0.170535   
O125     O      0.445990000000     0.061760000000     0.868930000000    -0.262286   
O126     O      0.507130000000     0.082490000000     0.218190000000    -0.180677   
O127     O      0.432020000000     0.092490000000     0.194770000000    -0.161204   
O128     O      0.490890000000     0.095380000000     0.141090000000    -0.256467   
O129     O      0.794130000000     0.552260000000     0.572710000000    -0.176005   
O130     O      0.805660000000     0.619000000000     0.531770000000    -0.166993   
O131     O      0.867810000000     0.583620000000     0.567200000000    -0.261593   
O132     O      0.231070000000     0.584370000000     0.509390000000    -0.182361   
O133     O      0.205900000000     0.592030000000     0.583830000000    -0.167679   
O134     O      0.155370000000     0.606630000000     0.523970000000    -0.259307   
O135     O      0.793510000000     0.522890000000     0.915590000000    -0.182223   
O136     O      0.807630000000     0.451010000000     0.885550000000    -0.168134   
O137     O      0.868390000000     0.501640000000     0.896400000000    -0.256544   
O138     O      0.281110000000     0.452280000000     0.954910000000    -0.181407   
O139     O      0.289760000000     0.415370000000     0.024230000000    -0.171702   
O140     O      0.351510000000     0.418950000000     0.973890000000    -0.259538   
O141     O      0.930360000000     0.528250000000     0.714560000000    -0.177082   
O142     O      0.906690000000     0.455740000000     0.693280000000    -0.164879   
O143     O      0.910120000000     0.513670000000     0.638720000000    -0.260628   
O144     O      0.961110000000     0.443860000000     0.210020000000    -0.178043   
O145     O      0.035700000000     0.417520000000     0.203830000000    -0.16467    
O146     O      0.989450000000     0.420550000000     0.139080000000    -0.256953   
O147     O      0.014770000000     0.735790000000     0.427820000000    -0.180957   
O148     O      0.938520000000     0.716210000000     0.418100000000    -0.162624   
O149     O      0.994980000000     0.660510000000     0.408860000000    -0.257338   
O150     O      0.010990000000     0.303960000000     0.404720000000    -0.176062   
O151     O      0.085030000000     0.330430000000     0.394350000000    -0.161996   
O152     O      0.024090000000     0.382030000000     0.392280000000    -0.255457   
O153     O      0.820350000000     0.936050000000     0.478000000000    -0.179199   
O154     O      0.819720000000     0.898450000000     0.547460000000    -0.172257   
O155     O      0.889550000000     0.917370000000     0.513840000000    -0.261646   
O156     O      0.227010000000     0.088770000000     0.472980000000    -0.180739   
O157     O      0.201700000000     0.137980000000     0.529480000000    -0.170405   
O158     O      0.149250000000     0.108360000000     0.477240000000    -0.262096   
O159     O      0.038820000000     0.786720000000     0.071820000000    -0.182463   
O160     O      0.987200000000     0.813060000000     0.125720000000    -0.164904   
O161     O      0.042980000000     0.862590000000     0.097250000000    -0.260502   
O162     O      0.975620000000     0.222810000000     0.094310000000    -0.176123   
O163     O      0.041440000000     0.204950000000     0.134670000000    -0.163536   
O164     O      0.990220000000     0.146880000000     0.115260000000    -0.25996    
O165     O      0.812270000000     0.943430000000     0.978300000000    -0.179855   
O166     O      0.807810000000     0.905440000000     0.047440000000    -0.16984    
O167     O      0.879320000000     0.919500000000     0.015040000000    -0.25945    
O168     O      0.298430000000     0.958660000000     0.071770000000    -0.182898   
O169     O      0.305740000000     0.030910000000     0.103360000000    -0.168042   
O170     O      0.370380000000     0.984670000000     0.095770000000    -0.258038   
O171     O      0.918270000000     0.024130000000     0.803660000000    -0.181264   
O172     O      0.911730000000     0.098010000000     0.831340000000    -0.167225   
O173     O      0.903150000000     0.036380000000     0.881110000000    -0.25806    
O174     O      0.928060000000     0.010210000000     0.306690000000    -0.178739   
O175     O      0.919530000000     0.086400000000     0.326450000000    -0.161702   
O176     O      0.912930000000     0.030210000000     0.382490000000    -0.255661   
S1       S      0.434420000000     0.541840000000     0.807800000000     0.281137   
S2       S      0.564730000000     0.435400000000     0.166050000000     0.280074   
S3       S      0.420800000000     0.824880000000     0.511730000000     0.281258   
S4       S      0.595350000000     0.173040000000     0.499110000000     0.280816   
S5       S      0.590680000000     0.820960000000     0.011690000000     0.281492   
S6       S      0.578680000000     0.181120000000     0.006210000000     0.28076    
S7       S      0.471050000000     0.056260000000     0.826780000000     0.279426   
S8       S      0.475260000000     0.073560000000     0.182490000000     0.283686   
S9       S      0.825100000000     0.575900000000     0.543470000000     0.282342   
S10      S      0.192960000000     0.578210000000     0.539120000000     0.281509   
S11      S      0.825180000000     0.485830000000     0.914660000000     0.281876   
S12      S      0.312140000000     0.443350000000     0.991330000000     0.280671   
S13      S      0.931650000000     0.495060000000     0.679020000000     0.282362   
S14      S      0.000650000000     0.442990000000     0.181550000000     0.280693   
S15      S      0.981680000000     0.700590000000     0.434540000000     0.282172   
S16      S      0.041500000000     0.340960000000     0.413610000000     0.282106   
S17      S      0.842790000000     0.932130000000     0.520940000000     0.281812   
S18      S      0.190170000000     0.098620000000     0.503300000000     0.280414   
S19      S      0.012530000000     0.825230000000     0.086050000000     0.28046    
S20      S      0.010640000000     0.189390000000     0.100370000000     0.281651   
S21      S      0.833650000000     0.937580000000     0.021560000000     0.281479   
S22      S      0.327380000000     0.997770000000     0.075050000000     0.281238   
S23      S      0.927580000000     0.053110000000     0.841600000000     0.281182   
S24      S      0.936730000000     0.043310000000     0.341270000000     0.281845   
Zn1      Zn     0.975110000000     0.979080000000     0.054650000000     0.455881   
Zn2      Zn     0.044190000000     0.042670000000     0.049630000000     0.455041   
Zn3      Zn     0.033550000000     0.977590000000     0.981690000000     0.451273   
Zn4      Zn     0.973440000000     0.048150000000     0.990020000000     0.457786   
Zn5      Zn     0.975620000000     0.050890000000     0.488730000000     0.454307   
Zn6      Zn     0.044190000000     0.984740000000     0.488040000000     0.448466   
Zn7      Zn     0.044000000000     0.054140000000     0.551090000000     0.457698   
Zn8      Zn     0.979960000000     0.985740000000     0.555330000000     0.457812   
Zn9      Zn     0.030810000000     0.546530000000     0.967020000000     0.451879   
Zn10     Zn     0.972250000000     0.472140000000     0.966720000000     0.454092   
Zn11     Zn     0.035310000000     0.483420000000     0.035320000000     0.455296   
Zn12     Zn     0.960930000000     0.540960000000     0.028940000000     0.45294    
Zn13     Zn     0.971430000000     0.551100000000     0.470320000000     0.459843   
Zn14     Zn     0.042250000000     0.488820000000     0.462630000000     0.455376   
Zn15     Zn     0.039920000000     0.548210000000     0.533110000000     0.456687   
Zn16     Zn     0.976840000000     0.478980000000     0.528730000000     0.456885   
Zn17     Zn     0.478210000000     0.959780000000     0.975240000000     0.45147    
Zn18     Zn     0.473330000000     0.028870000000     0.037410000000     0.463123   
Zn19     Zn     0.543400000000     0.967350000000     0.042250000000     0.45575    
Zn20     Zn     0.540820000000     0.030450000000     0.972810000000     0.455338   
Zn21     Zn     0.487290000000     0.030470000000     0.542300000000     0.451011   
Zn22     Zn     0.473760000000     0.967360000000     0.475490000000     0.459617   
Zn23     Zn     0.548100000000     0.022980000000     0.471010000000     0.455188   
Zn24     Zn     0.544270000000     0.955770000000     0.535970000000     0.450058   
Zn25     Zn     0.537360000000     0.524180000000     0.025080000000     0.454271   
Zn26     Zn     0.464090000000     0.467650000000     0.020300000000     0.458649   
Zn27     Zn     0.472310000000     0.537480000000     0.958490000000     0.452962   
Zn28     Zn     0.529860000000     0.464060000000     0.954000000000     0.453607   
Zn29     Zn     0.479190000000     0.462340000000     0.527350000000     0.450677   
Zn30     Zn     0.468030000000     0.524930000000     0.458250000000     0.452228   
Zn31     Zn     0.538710000000     0.533920000000     0.518830000000     0.454877   
Zn32     Zn     0.539530000000     0.465220000000     0.456260000000     0.453654   


