data_structure

_audit_creation_method RASPA-1.0
_audit_creation_date 2023-5-25
_audit_author_name 'Poobodin Mano'

_cell_length_a    34.1067
_cell_length_b    34.115
_cell_length_c    33.932
_cell_angle_alpha 90
_cell_angle_beta  90
_cell_angle_gamma 90
_cell_volume      39481.6

_symmetry_cell_setting          triclinic
_symmetry_space_group_name_Hall 'P 1'
_symmetry_space_group_name_H-M  'P 1'
_symmetry_Int_Tables_number     1

_symmetry_equiv_pos_as_xyz 'x,y,z'

loop_
_atom_site_label
_atom_site_type_symbol
_atom_site_fract_x
_atom_site_fract_y
_atom_site_fract_z
_atom_site_charge
Br1      Br     0.577160000000     0.500860000000     0.831750000000    -0.23585    
Br2      Br     0.425820000000     0.468820000000     0.201660000000    -0.240203   
Br3      Br     0.468320000000     0.689130000000     0.433970000000    -0.230451   
Br4      Br     0.488310000000     0.193020000000     0.419930000000    -0.241429   
Br5      Br     0.599240000000     0.829500000000     0.970940000000    -0.235775   
Br6      Br     0.581870000000     0.205980000000     0.017440000000    -0.243966   
Br7      Br     0.505710000000     0.101010000000     0.827080000000    -0.242629   
Br8      Br     0.494710000000     0.920360000000     0.177700000000    -0.235114   
Br9      Br     0.673320000000     0.587740000000     0.554330000000    -0.239513   
Br10     Br     0.315860000000     0.575620000000     0.473790000000    -0.231617   
Br11     Br     0.806980000000     0.513310000000     0.933900000000    -0.234258   
Br12     Br     0.180110000000     0.481970000000     0.931780000000    -0.239847   
Br13     Br     0.001620000000     0.408640000000     0.835490000000    -0.232467   
Br14     Br     0.072550000000     0.507190000000     0.331900000000    -0.242388   
Br15     Br     0.039440000000     0.806480000000     0.429220000000    -0.237914   
Br16     Br     0.978590000000     0.175400000000     0.415380000000    -0.240976   
Br17     Br     0.831670000000     0.060400000000     0.524350000000    -0.246299   
Br18     Br     0.327050000000     0.942300000000     0.466610000000    -0.242309   
Br19     Br     0.933330000000     0.691710000000     0.997910000000    -0.235238   
Br20     Br     0.009630000000     0.193750000000     0.927550000000    -0.236497   
Br21     Br     0.835100000000     0.918520000000     0.972930000000    -0.233196   
Br22     Br     0.334840000000     0.999260000000     0.077990000000    -0.237378   
Br23     Br     0.093330000000     0.977110000000     0.808920000000    -0.241223   
Br24     Br     0.942400000000     0.973050000000     0.184190000000    -0.238147   
C1       C      0.022880000000     0.001890000000     0.888380000000     0.371173   
C2       C      0.126850000000     0.005010000000     0.999980000000     0.363055   
C3       C      0.014790000000     0.110770000000     0.998360000000     0.372399   
C4       C      0.012780000000     0.001700000000     0.106560000000     0.369662   
C5       C      0.023300000000     0.892360000000     0.000130000000     0.366696   
C6       C      0.909740000000     0.995870000000     0.989790000000     0.37062    
C7       C      0.003590000000     0.104600000000     0.492080000000     0.37508    
C8       C      0.023960000000     0.994890000000     0.390950000000     0.362512   
C9       C      0.115320000000     0.998310000000     0.515090000000     0.365106   
C10      C      0.010300000000     0.884880000000     0.497750000000     0.37222    
C11      C      0.900070000000     0.991800000000     0.488430000000     0.375817   
C12      C      0.995180000000     0.998460000000     0.605180000000     0.36371    
C13      C      0.993910000000     0.490780000000     0.901530000000     0.375904   
C14      C      0.985570000000     0.393450000000     0.022160000000     0.364937   
C15      C      0.102850000000     0.494390000000     0.007730000000     0.371772   
C16      C      0.994480000000     0.509250000000     0.119790000000     0.362351   
C17      C      0.886180000000     0.511480000000     0.008440000000     0.371313   
C18      C      0.002050000000     0.609860000000     0.001820000000     0.372912   
C19      C      0.994260000000     0.387420000000     0.507680000000     0.363872   
C20      C      0.995800000000     0.505370000000     0.404880000000     0.370021   
C21      C      0.888250000000     0.498340000000     0.515550000000     0.365213   
C22      C      0.001610000000     0.602860000000     0.524220000000     0.363158   
C23      C      0.106540000000     0.490200000000     0.509150000000     0.365917   
C24      C      0.999710000000     0.487000000000     0.622620000000     0.364225   
C25      C      0.407750000000     0.010190000000     0.002380000000     0.371608   
C26      C      0.511130000000     0.002730000000     0.113380000000     0.373525   
C27      C      0.524240000000     0.905340000000     0.994630000000     0.373081   
C28      C      0.625340000000     0.021790000000     0.011430000000     0.364565   
C29      C      0.512950000000     0.122030000000     0.012160000000     0.372148   
C30      C      0.518590000000     0.020990000000     0.894850000000     0.370815   
C31      C      0.398290000000     0.009310000000     0.505070000000     0.375271   
C32      C      0.504150000000     0.897880000000     0.514240000000     0.368373   
C33      C      0.500260000000     0.996110000000     0.393020000000     0.36284    
C34      C      0.615860000000     0.002400000000     0.488910000000     0.366194   
C35      C      0.516700000000     0.014660000000     0.608750000000     0.358554   
C36      C      0.510350000000     0.115610000000     0.493050000000     0.370115   
C37      C      0.386630000000     0.518110000000     0.017800000000     0.362961   
C38      C      0.488320000000     0.404920000000     0.006560000000     0.365379   
C39      C      0.501260000000     0.518250000000     0.907540000000     0.371269   
C40      C      0.602470000000     0.510240000000     0.024100000000     0.363784   
C41      C      0.492690000000     0.505710000000     0.125260000000     0.372041   
C42      C      0.494570000000     0.622660000000     0.020280000000     0.364883   
C43      C      0.389070000000     0.505440000000     0.505940000000     0.370406   
C44      C      0.501820000000     0.398730000000     0.521620000000     0.362854   
C45      C      0.506150000000     0.500770000000     0.406280000000     0.364915   
C46      C      0.605150000000     0.512790000000     0.521500000000     0.369668   
C47      C      0.486370000000     0.512970000000     0.622340000000     0.364642   
C48      C      0.496390000000     0.615130000000     0.507390000000     0.370089   
C49      C      0.466460000000     0.481080000000     0.684520000000     0.0100439  
C50      C      0.494880000000     0.555670000000     0.845350000000     0.0169479  
C51      C      0.523560000000     0.487010000000     0.845950000000     0.132884   
C52      C      0.472520000000     0.546230000000     0.807460000000    -0.10746    
C53      C      0.491380000000     0.474830000000     0.721470000000    -0.0999391  
C54      C      0.499710000000     0.476410000000     0.809160000000    -0.136375   
C55      C      0.493480000000     0.512570000000     0.744900000000     0.018988   
C56      C      0.491470000000     0.512770000000     0.784990000000     0.0449528  
C57      C      0.483800000000     0.552850000000     0.683320000000     0.00948291 
C58      C      0.506690000000     0.548380000000     0.721840000000    -0.0992777  
C59      C      0.526010000000     0.463630000000     0.347000000000     0.00978068 
C60      C      0.499060000000     0.537220000000     0.190530000000     0.0165022  
C61      C      0.480160000000     0.465230000000     0.184340000000     0.131886   
C62      C      0.526040000000     0.527060000000     0.224820000000    -0.107448   
C63      C      0.502710000000     0.454140000000     0.309490000000    -0.101829   
C64      C      0.507160000000     0.455220000000     0.219290000000    -0.134974   
C65      C      0.500040000000     0.490500000000     0.284080000000     0.0250904  
C66      C      0.511320000000     0.490750000000     0.245610000000     0.0414652  
C67      C      0.506130000000     0.534940000000     0.342110000000     0.00907817 
C68      C      0.483220000000     0.526160000000     0.304560000000    -0.100707   
C69      C      0.469580000000     0.839320000000     0.539250000000     0.0105553  
C70      C      0.533890000000     0.676970000000     0.509350000000     0.016015   
C71      C      0.461960000000     0.676260000000     0.489540000000     0.132194   
C72      C      0.527270000000     0.714470000000     0.532880000000    -0.107169   
C73      C      0.457920000000     0.802210000000     0.516560000000    -0.101186   
C74      C      0.454840000000     0.713610000000     0.513920000000    -0.135529   
C75      C      0.493600000000     0.776400000000     0.511030000000     0.0215427  
C76      C      0.492400000000     0.736990000000     0.517080000000     0.0438059  
C77      C      0.538910000000     0.834320000000     0.513610000000     0.0102788  
C78      C      0.528720000000     0.796260000000     0.492250000000    -0.100273   
C79      C      0.469140000000     0.335820000000     0.537280000000     0.00901155 
C80      C      0.546400000000     0.178280000000     0.500160000000     0.0166284  
C81      C      0.476840000000     0.177010000000     0.473830000000     0.13233    
C82      C      0.536710000000     0.214300000000     0.525100000000    -0.107407   
C83      C      0.463860000000     0.300110000000     0.510330000000    -0.0992566  
C84      C      0.466390000000     0.212820000000     0.499260000000    -0.135422   
C85      C      0.501860000000     0.277170000000     0.507640000000     0.0182671  
C86      C      0.502580000000     0.237140000000     0.507890000000     0.0438886  
C87      C      0.541430000000     0.337760000000     0.522440000000     0.0088457  
C88      C      0.537610000000     0.301310000000     0.496480000000    -0.098723   
C89      C      0.515110000000     0.684480000000     0.052930000000     0.00862099 
C90      C      0.501260000000     0.843120000000     0.964560000000     0.0173873  
C91      C      0.559740000000     0.843650000000     0.009930000000     0.13082    
C92      C      0.483700000000     0.808410000000     0.986830000000    -0.107155   
C93      C      0.538450000000     0.719020000000     0.035820000000    -0.0987804  
C94      C      0.544440000000     0.806740000000     0.030980000000    -0.135266   
C95      C      0.513940000000     0.743170000000     0.007110000000     0.018566   
C96      C      0.515530000000     0.783480000000     0.005930000000     0.0436961  
C97      C      0.468860000000     0.686120000000     0.995510000000     0.0101797  
C98      C      0.492880000000     0.718630000000     0.976140000000    -0.0990764  
C99      C      0.511500000000     0.343520000000     0.975060000000     0.00949229 
C100     C      0.489620000000     0.181190000000     0.047460000000     0.016022   
C101     C      0.535900000000     0.187080000000     0.989230000000     0.133544   
C102     C      0.466150000000     0.216660000000     0.032780000000    -0.107593   
C103     C      0.527200000000     0.307620000000     0.996700000000    -0.0991324  
C104     C      0.511630000000     0.221490000000     0.973750000000    -0.134508   
C105     C      0.493480000000     0.282880000000     0.012230000000     0.0198239  
C106     C      0.491570000000     0.243030000000     0.007320000000     0.0439017  
C107     C      0.451120000000     0.343330000000     0.017500000000     0.00789028 
C108     C      0.464630000000     0.305460000000     0.037870000000    -0.0996322  
C109     C      0.555540000000     0.034920000000     0.667070000000     0.0068988  
C110     C      0.491490000000     0.000540000000     0.830310000000     0.0161843  
C111     C      0.540550000000     0.056460000000     0.835030000000     0.130469   
C112     C      0.511840000000     0.986340000000     0.792890000000    -0.107899   
C113     C      0.545960000000     0.055400000000     0.706350000000    -0.0993985  
C114     C      0.558610000000     0.043730000000     0.795380000000    -0.13469    
C115     C      0.520660000000     0.029390000000     0.732290000000     0.021542   
C116     C      0.529280000000     0.020820000000     0.770860000000     0.0422932  
C117     C      0.495240000000     0.992210000000     0.674680000000     0.00868283 
C118     C      0.484010000000     0.015100000000     0.711600000000    -0.100309   
C119     C      0.525880000000     0.965760000000     0.332070000000     0.0085112  
C120     C      0.478900000000     0.021750000000     0.175840000000     0.01485    
C121     C      0.528820000000     0.965920000000     0.173830000000     0.130251   
C122     C      0.495570000000     0.034250000000     0.215710000000    -0.10739    
C123     C      0.507890000000     0.949180000000     0.294170000000    -0.102826   
C124     C      0.542870000000     0.978290000000     0.215090000000    -0.13261    
C125     C      0.491670000000     0.982780000000     0.270080000000     0.0303589  
C126     C      0.509780000000     0.998140000000     0.237330000000     0.0415151  
C127     C      0.475670000000     0.021580000000     0.329430000000     0.00848743 
C128     C      0.458770000000     0.002930000000     0.292080000000    -0.103563   
C129     C      0.827040000000     0.481710000000     0.550570000000     0.00922574 
C130     C      0.667550000000     0.515150000000     0.484880000000     0.0168284  
C131     C      0.664950000000     0.531350000000     0.557920000000     0.133344   
C132     C      0.706980000000     0.494780000000     0.490600000000    -0.107639   
C133     C      0.792720000000     0.508100000000     0.562680000000    -0.100321   
C134     C      0.704090000000     0.509920000000     0.564230000000    -0.136345   
C135     C      0.767590000000     0.516210000000     0.526890000000     0.019425   
C136     C      0.728100000000     0.510130000000     0.526700000000     0.0444745  
C137     C      0.825090000000     0.509130000000     0.481270000000     0.00875417 
C138     C      0.789400000000     0.533950000000     0.492290000000    -0.0992348  
C139     C      0.166000000000     0.473240000000     0.471130000000     0.00889397 
C140     C      0.325610000000     0.500240000000     0.540510000000     0.0166216  
C141     C      0.328830000000     0.520270000000     0.468320000000     0.131883   
C142     C      0.288920000000     0.476150000000     0.532090000000    -0.107897   
C143     C      0.202340000000     0.497980000000     0.461560000000    -0.100602   
C144     C      0.291630000000     0.496130000000     0.459910000000    -0.135715   
C145     C      0.228070000000     0.500860000000     0.497770000000     0.0220575  
C146     C      0.267160000000     0.492600000000     0.496950000000     0.0432007  
C147     C      0.170750000000     0.492260000000     0.543030000000     0.00935902 
C148     C      0.207510000000     0.516260000000     0.534220000000    -0.1001     
C149     C      0.665420000000     0.480660000000     0.002890000000     0.00928004 
C150     C      0.827600000000     0.551240000000     0.024690000000     0.0148098  
C151     C      0.821460000000     0.489260000000     0.983850000000     0.132594   
C152     C      0.790010000000     0.540860000000     0.047210000000    -0.106735   
C153     C      0.700540000000     0.502020000000     0.985250000000    -0.100812   
C154     C      0.784810000000     0.478100000000     0.007300000000    -0.134563   
C155     C      0.724520000000     0.520690000000     0.017900000000     0.022016   
C156     C      0.763930000000     0.514330000000     0.022680000000     0.0434159  
C157     C      0.663620000000     0.529040000000     0.059020000000     0.0088613  
C158     C      0.701050000000     0.548830000000     0.043470000000    -0.101227   
C159     C      0.322890000000     0.542200000000     0.991840000000     0.00986318 
C160     C      0.164560000000     0.462120000000     0.028630000000     0.0162655  
C161     C      0.165010000000     0.514880000000     0.976150000000     0.132795   
C162     C      0.202480000000     0.478760000000     0.046370000000    -0.107329   
C163     C      0.288720000000     0.516370000000     0.978400000000    -0.0992089  
C164     C      0.201180000000     0.533310000000     0.995160000000    -0.133835   
C165     C      0.265730000000     0.501080000000     0.013730000000     0.0188824  
C166     C      0.225590000000     0.502730000000     0.016490000000     0.044344   
C167     C      0.325990000000     0.505530000000     0.055940000000     0.00774544 
C168     C      0.291010000000     0.480020000000     0.044010000000    -0.0991417  
C169     C      0.969060000000     0.460280000000     0.682940000000     0.00791254 
C170     C      0.023620000000     0.509120000000     0.837670000000     0.0157482  
C171     C      0.970650000000     0.456150000000     0.841750000000     0.130495   
C172     C      0.005400000000     0.523200000000     0.799110000000    -0.107284   
C173     C      0.984890000000     0.440580000000     0.720260000000    -0.102474   
C174     C      0.955150000000     0.469960000000     0.801500000000    -0.13347    
C175     C      0.004840000000     0.471460000000     0.745150000000     0.0301     
C176     C      0.988230000000     0.488200000000     0.777940000000     0.0412466  
C177     C      0.025320000000     0.509780000000     0.686900000000     0.00864907 
C178     C      0.039870000000     0.488450000000     0.723780000000    -0.103076   
C179     C      0.016940000000     0.483980000000     0.184390000000     0.00965686 
C180     C      0.980060000000     0.546210000000     0.346810000000     0.0149683  
C181     C      0.020970000000     0.484140000000     0.339950000000     0.132316   
C182     C      0.961730000000     0.538700000000     0.306180000000    -0.107255   
C183     C      0.032730000000     0.505120000000     0.220730000000    -0.101671   
C184     C      0.001060000000     0.476150000000     0.300370000000    -0.133491   
C185     C      0.999140000000     0.523990000000     0.242940000000     0.0226748  
C186     C      0.988800000000     0.514140000000     0.280750000000     0.0427543  
C187     C      0.962140000000     0.534130000000     0.180130000000     0.00783997 
C188     C      0.977060000000     0.553630000000     0.218070000000    -0.101416   
C189     C      0.038050000000     0.662590000000     0.543850000000     0.00940243 
C190     C      0.972880000000     0.823010000000     0.502780000000     0.0167428  
C191     C      0.044970000000     0.822610000000     0.484010000000     0.132048   
C192     C      0.979400000000     0.787780000000     0.529640000000    -0.107882   
C193     C      0.048350000000     0.698200000000     0.518140000000    -0.100314   
C194     C      0.051710000000     0.786650000000     0.510630000000    -0.135326   
C195     C      0.012470000000     0.723850000000     0.512580000000     0.0204383  
C196     C      0.013990000000     0.763700000000     0.515600000000     0.0433507  
C197     C      0.967250000000     0.666840000000     0.523060000000     0.00948431 
C198     C      0.976330000000     0.702590000000     0.497590000000    -0.0997138  
C199     C      0.959740000000     0.325330000000     0.520960000000     0.00957924 
C200     C      0.037040000000     0.168600000000     0.497200000000     0.0175848  
C201     C      0.967550000000     0.163360000000     0.470410000000     0.133572   
C202     C      0.026220000000     0.206730000000     0.518130000000    -0.107925   
C203     C      0.952730000000     0.289210000000     0.495030000000    -0.100423   
C204     C      0.955950000000     0.200620000000     0.492950000000    -0.13677    
C205     C      0.990290000000     0.265830000000     0.492230000000     0.0201122  
C206     C      0.991490000000     0.226470000000     0.498620000000     0.0449693  
C207     C      0.031560000000     0.325820000000     0.501830000000     0.00889025 
C208     C      0.025460000000     0.288630000000     0.477550000000    -0.0991372  
C209     C      0.679440000000     0.036880000000     0.483450000000     0.00951774 
C210     C      0.837740000000     0.960180000000     0.506000000000     0.0178583  
C211     C      0.839350000000     0.029120000000     0.477010000000     0.131309   
C212     C      0.799970000000     0.951420000000     0.483350000000    -0.109604   
C213     C      0.719860000000     0.029210000000     0.501520000000    -0.100893   
C214     C      0.799750000000     0.021270000000     0.457190000000    -0.134324   
C215     C      0.738180000000     0.991810000000     0.485720000000     0.0189376  
C216     C      0.777250000000     0.989030000000     0.477840000000     0.0431752  
C217     C      0.673380000000     0.965170000000     0.465950000000     0.0101623  
C218     C      0.711970000000     0.956080000000     0.486910000000    -0.100673   
C219     C      0.178970000000     0.963730000000     0.519320000000     0.0102921  
C220     C      0.335630000000     0.040920000000     0.487720000000     0.0170189  
C221     C      0.337680000000     0.971350000000     0.514810000000     0.131322   
C222     C      0.298640000000     0.049440000000     0.511930000000    -0.10859    
C223     C      0.217220000000     0.972350000000     0.497540000000    -0.101045   
C224     C      0.299410000000     0.979020000000     0.537000000000    -0.134077   
C225     C      0.236590000000     0.009350000000     0.513010000000     0.0189401  
C226     C      0.276090000000     0.011800000000     0.518200000000     0.0427901  
C227     C      0.173240000000     0.034800000000     0.538920000000     0.00962018 
C228     C      0.210270000000     0.045000000000     0.515470000000    -0.100476   
C229     C      0.000090000000     0.829880000000     0.029120000000     0.0112005  
C230     C      0.025450000000     0.667330000000     0.964090000000     0.0153614  
C231     C      0.981540000000     0.675810000000     0.024120000000     0.131102   
C232     C      0.048530000000     0.704190000000     0.975580000000    -0.107253   
C233     C      0.983810000000     0.794280000000     0.007480000000    -0.103884   
C234     C      0.005700000000     0.711690000000     0.035990000000    -0.133571   
C235     C      0.017370000000     0.770150000000     0.991000000000     0.0243976  
C236     C      0.023090000000     0.731410000000     0.999950000000     0.0426461  
C237     C      0.058250000000     0.830890000000     0.983070000000     0.00957655 
C238     C      0.043670000000     0.793130000000     0.963170000000    -0.101863   
C239     C      0.954030000000     0.330490000000     0.003650000000     0.00963694 
C240     C      0.044260000000     0.173820000000     0.019280000000     0.0151304  
C241     C      0.984820000000     0.172650000000     0.974670000000     0.131835   
C242     C      0.026800000000     0.208060000000     0.042720000000    -0.106335   
C243     C      0.975300000000     0.295090000000     0.986240000000    -0.0994733  
C244     C      0.966330000000     0.205650000000     0.998930000000    -0.132903   
C245     C      0.996150000000     0.271560000000     0.018230000000     0.0198096  
C246     C      0.997450000000     0.231230000000     0.018220000000     0.0430224  
C247     C      0.001190000000     0.333180000000     0.060030000000     0.0100852  
C248     C      0.022010000000     0.296050000000     0.045450000000    -0.0997383  
C249     C      0.686500000000     0.006690000000     0.047940000000     0.0102883  
C250     C      0.848430000000     0.013940000000     0.954940000000     0.0165805  
C251     C      0.847710000000     0.962360000000     0.007590000000     0.130985   
C252     C      0.811230000000     0.033080000000     0.971260000000    -0.105646   
C253     C      0.723760000000     0.987340000000     0.032130000000    -0.0977858  
C254     C      0.810230000000     0.979510000000     0.025710000000    -0.135079   
C255     C      0.747630000000     0.013370000000     0.004340000000     0.0161151  
C256     C      0.787170000000     0.006650000000     0.998390000000     0.043842   
C257     C      0.686880000000     0.057230000000     0.995300000000     0.0100875  
C258     C      0.724560000000     0.040730000000     0.977130000000    -0.0969883  
C259     C      0.188240000000     0.034520000000     0.025640000000     0.00748287 
C260     C      0.346280000000     0.980850000000     0.976940000000     0.0158343  
C261     C      0.345150000000     0.031910000000     0.032120000000     0.130814   
C262     C      0.308150000000     0.998430000000     0.960870000000    -0.107882   
C263     C      0.225940000000     0.016270000000     0.042070000000    -0.101201   
C264     C      0.306590000000     0.047810000000     0.015100000000    -0.134346   
C265     C      0.249780000000     0.999370000000     0.008330000000     0.0265389  
C266     C      0.284410000000     0.015080000000     0.994750000000     0.0429802  
C267     C      0.189820000000     0.984740000000     0.969780000000     0.00727584 
C268     C      0.227200000000     0.967200000000     0.987520000000    -0.100417   
C269     C      0.976160000000     0.965020000000     0.667060000000     0.00881776 
C270     C      0.016050000000     0.038200000000     0.825610000000     0.0167696  
C271     C      0.039750000000     0.967680000000     0.826400000000     0.133004   
C272     C      0.989650000000     0.029220000000     0.790460000000    -0.108168   
C273     C      0.002520000000     0.957620000000     0.702930000000    -0.0990788  
C274     C      0.013150000000     0.958160000000     0.791070000000    -0.136025   
C275     C      0.006630000000     0.994910000000     0.726910000000     0.019461   
C276     C      0.005330000000     0.994780000000     0.767060000000     0.045016   
C277     C      0.993750000000     0.036670000000     0.667310000000     0.00888301 
C278     C      0.019380000000     0.030810000000     0.703750000000    -0.0989442  
C279     C      0.050220000000     0.963780000000     0.330680000000     0.00902317 
C280     C      0.018190000000     0.037040000000     0.169990000000     0.0174454  
C281     C      0.996590000000     0.965750000000     0.167590000000     0.132677   
C282     C      0.043320000000     0.028300000000     0.206200000000    -0.108457   
C283     C      0.028720000000     0.955010000000     0.291940000000    -0.0992379  
C284     C      0.022850000000     0.956420000000     0.203230000000    -0.136226   
C285     C      0.024040000000     0.992320000000     0.268130000000     0.0201948  
C286     C      0.028100000000     0.992770000000     0.228200000000     0.0450251  
C287     C      0.026030000000     0.033600000000     0.329500000000     0.00841037 
C288     C      0.005790000000     0.026550000000     0.289990000000    -0.0984384  
H1       H      0.477330000000     0.450810000000     0.738490000000     0.0485193  
H2       H      0.522410000000     0.571100000000     0.837190000000     0.0488625  
H3       H      0.453690000000     0.562980000000     0.690700000000     0.0332497  
H4       H      0.504850000000     0.576150000000     0.738600000000     0.0516915  
H5       H      0.469080000000     0.573430000000     0.790020000000     0.0505855  
H6       H      0.516740000000     0.454170000000     0.792440000000     0.0710841  
H7       H      0.467090000000     0.453620000000     0.666870000000     0.043267   
H8       H      0.477230000000     0.576530000000     0.863210000000     0.0426402  
H9       H      0.538200000000     0.544360000000     0.714500000000     0.0664744  
H10      H      0.471420000000     0.462890000000     0.818100000000     0.0624075  
H11      H      0.497720000000     0.576130000000     0.665160000000     0.0453508  
H12      H      0.521460000000     0.465500000000     0.713060000000     0.0614268  
H13      H      0.442360000000     0.536890000000     0.815580000000     0.057805   
H14      H      0.525420000000     0.460140000000     0.864430000000     0.0308811  
H15      H      0.435570000000     0.486520000000     0.693560000000     0.0349613  
H16      H      0.518140000000     0.429640000000     0.294590000000     0.0503173  
H17      H      0.470590000000     0.547520000000     0.202700000000     0.0480471  
H18      H      0.535750000000     0.545670000000     0.333630000000     0.0355234  
H19      H      0.481760000000     0.552700000000     0.285800000000     0.0554739  
H20      H      0.529940000000     0.552710000000     0.244500000000     0.051353   
H21      H      0.494700000000     0.429310000000     0.234570000000     0.0705146  
H22      H      0.524890000000     0.437660000000     0.366790000000     0.0436969  
H23      H      0.511980000000     0.562150000000     0.173930000000     0.0440094  
H24      H      0.452400000000     0.519430000000     0.312800000000     0.0690392  
H25      H      0.536590000000     0.446860000000     0.208000000000     0.0618063  
H26      H      0.491290000000     0.559110000000     0.358250000000     0.0523273  
H27      H      0.472690000000     0.444210000000     0.317420000000     0.0637396  
H28      H      0.555670000000     0.520590000000     0.212810000000     0.0579039  
H29      H      0.481650000000     0.440280000000     0.163280000000     0.0303807  
H30      H      0.557210000000     0.468670000000     0.338860000000     0.0353973  
H31      H      0.434630000000     0.787380000000     0.533940000000     0.0514329  
H32      H      0.545690000000     0.685150000000     0.479940000000     0.0495348  
H33      H      0.551950000000     0.826630000000     0.542640000000     0.0329731  
H34      H      0.555150000000     0.777480000000     0.490480000000     0.0525054  
H35      H      0.554780000000     0.731700000000     0.533890000000     0.0528433  
H36      H      0.430880000000     0.730390000000     0.499520000000     0.0745602  
H37      H      0.443690000000     0.859090000000     0.540650000000     0.0465463  
H38      H      0.556850000000     0.659200000000     0.524250000000     0.0501449  
H39      H      0.520830000000     0.803490000000     0.461310000000     0.066846   
H40      H      0.444870000000     0.705460000000     0.544010000000     0.064267   
H41      H      0.561730000000     0.850250000000     0.496550000000     0.043423   
H42      H      0.445720000000     0.810260000000     0.487280000000     0.0662071  
H43      H      0.520770000000     0.706300000000     0.563910000000     0.0602863  
H44      H      0.435150000000     0.657810000000     0.491870000000     0.0369614  
H45      H      0.477550000000     0.831020000000     0.569930000000     0.0355246  
H46      H      0.439740000000     0.282330000000     0.523150000000     0.0477936  
H47      H      0.560300000000     0.188410000000     0.472330000000     0.047987   
H48      H      0.550280000000     0.328140000000     0.552470000000     0.0331446  
H49      H      0.565570000000     0.284900000000     0.497210000000     0.0500669  
H50      H      0.563690000000     0.231780000000     0.529340000000     0.0504608  
H51      H      0.443650000000     0.229750000000     0.483150000000     0.0703115  
H52      H      0.441690000000     0.353390000000     0.536470000000     0.0431498  
H53      H      0.568610000000     0.160380000000     0.515980000000     0.0431629  
H54      H      0.533800000000     0.311010000000     0.465440000000     0.0633199  
H55      H      0.453440000000     0.202820000000     0.527600000000     0.061284   
H56      H      0.565380000000     0.356540000000     0.510760000000     0.0434743  
H57      H      0.454960000000     0.309830000000     0.480370000000     0.0603001  
H58      H      0.527960000000     0.204200000000     0.554980000000     0.0580427  
H59      H      0.450300000000     0.158120000000     0.472390000000     0.030407   
H60      H      0.473400000000     0.325380000000     0.568050000000     0.0347998  
H61      H      0.548260000000     0.736100000000     0.061770000000     0.0511085  
H62      H      0.518010000000     0.831760000000     0.938880000000     0.0499843  
H63      H      0.444930000000     0.699810000000     0.013040000000     0.034913   
H64      H      0.473520000000     0.734780000000     0.955890000000     0.0490637  
H65      H      0.464010000000     0.792910000000     0.966380000000     0.0508419  
H66      H      0.570800000000     0.789510000000     0.039030000000     0.0740454  
H67      H      0.535490000000     0.665530000000     0.069960000000     0.0459191  
H68      H      0.476870000000     0.861270000000     0.952780000000     0.0443091  
H69      H      0.515540000000     0.704850000000     0.957070000000     0.0626991  
H70      H      0.529500000000     0.815510000000     0.058730000000     0.0689983  
H71      H      0.455030000000     0.668160000000     0.971980000000     0.0441688  
H72      H      0.564820000000     0.707800000000     0.020220000000     0.0628065  
H73      H      0.464540000000     0.819910000000     0.010680000000     0.0619245  
H74      H      0.575230000000     0.861710000000     0.032300000000     0.036433   
H75      H      0.493220000000     0.696360000000     0.074110000000     0.0367595  
H76      H      0.548300000000     0.292250000000     0.977520000000     0.0606403  
H77      H      0.510690000000     0.191450000000     0.070240000000     0.0493751  
H78      H      0.431090000000     0.335240000000     0.992930000000     0.0353231  
H79      H      0.437420000000     0.288790000000     0.043990000000     0.0483482  
H80      H      0.454990000000     0.231340000000     0.059640000000     0.0514363  
H81      H      0.529650000000     0.239710000000     0.953900000000     0.0699942  
H82      H      0.536750000000     0.361520000000     0.965010000000     0.0472553  
H83      H      0.469000000000     0.160810000000     0.062390000000     0.0451241  
H84      H      0.478890000000     0.312680000000     0.066410000000     0.0594357  
H85      H      0.488230000000     0.209430000000     0.954400000000     0.0674968  
H86      H      0.433780000000     0.360860000000     0.038900000000     0.0464004  
H87      H      0.544680000000     0.317760000000     0.022410000000     0.0662164  
H88      H      0.440580000000     0.206470000000     0.015230000000     0.0576344  
H89      H      0.546980000000     0.170650000000     0.963220000000     0.0359955  
H90      H      0.495290000000     0.333560000000     0.948430000000     0.0356678  
H91      H      0.574570000000     0.062930000000     0.719710000000     0.0503212  
H92      H      0.465660000000     0.018590000000     0.821900000000     0.047612   
H93      H      0.511160000000     0.965180000000     0.683630000000     0.0350544  
H94      H      0.463770000000     0.997630000000     0.729980000000     0.0498954  
H95      H      0.491720000000     0.967720000000     0.775560000000     0.0502842  
H96      H      0.569490000000     0.070650000000     0.780870000000     0.0715027  
H97      H      0.569190000000     0.056840000000     0.647080000000     0.0450946  
H98      H      0.480380000000     0.974470000000     0.846470000000     0.0439596  
H99      H      0.466660000000     0.041170000000     0.702480000000     0.0613232  
H100     H      0.584460000000     0.024720000000     0.801110000000     0.0633499  
H101     H      0.467810000000     0.983020000000     0.659600000000     0.0443971  
H102     H      0.530010000000     0.083200000000     0.700420000000     0.0610729  
H103     H      0.536230000000     0.966500000000     0.801570000000     0.0596496  
H104     H      0.564950000000     0.067220000000     0.853860000000     0.0335081  
H105     H      0.577930000000     0.011920000000     0.672810000000     0.0360426  
H106     H      0.529320000000     0.930260000000     0.279030000000     0.0590332  
H107     H      0.452020000000     0.003980000000     0.180840000000     0.0538925  
H108     H      0.495030000000     0.046390000000     0.320870000000     0.0398756  
H109     H      0.441840000000     0.024560000000     0.274890000000     0.0538393  
H110     H      0.474090000000     0.052500000000     0.231620000000     0.052767   
H111     H      0.556590000000     0.953060000000     0.229950000000     0.0688163  
H112     H      0.534590000000     0.940670000000     0.351060000000     0.0468893  
H113     H      0.469900000000     0.048650000000     0.159710000000     0.0478803  
H114     H      0.436680000000     0.980620000000     0.300980000000     0.0650243  
H115     H      0.567060000000     0.999860000000     0.211460000000     0.0624731  
H116     H      0.450940000000     0.033970000000     0.346780000000     0.0498177  
H117     H      0.483460000000     0.929180000000     0.302350000000     0.0666725  
H118     H      0.520970000000     0.054020000000     0.210440000000     0.0589863  
H119     H      0.555060000000     0.956370000000     0.156930000000     0.0327783  
H120     H      0.553130000000     0.981940000000     0.324350000000     0.0367373  
H121     H      0.776570000000     0.492580000000     0.586410000000     0.0495015  
H122     H      0.673170000000     0.545460000000     0.474250000000     0.0471277  
H123     H      0.814460000000     0.481780000000     0.466980000000     0.0322925  
H124     H      0.770890000000     0.538920000000     0.465930000000     0.0504122  
H125     H      0.724170000000     0.497070000000     0.463020000000     0.049881   
H126     H      0.719510000000     0.524710000000     0.588940000000     0.072417   
H127     H      0.846450000000     0.477850000000     0.576620000000     0.0436756  
H128     H      0.651220000000     0.499800000000     0.461100000000     0.0424979  
H129     H      0.799900000000     0.563440000000     0.501390000000     0.0621428  
H130     H      0.698360000000     0.479060000000     0.573040000000     0.0625529  
H131     H      0.842860000000     0.525240000000     0.459090000000     0.0428515  
H132     H      0.804000000000     0.536210000000     0.574750000000     0.0606667  
H133     H      0.701540000000     0.462970000000     0.495140000000     0.0573281  
H134     H      0.646620000000     0.526250000000     0.584570000000     0.0304564  
H135     H      0.815390000000     0.452360000000     0.542340000000     0.0354124  
H136     H      0.217320000000     0.483480000000     0.436450000000     0.0528193  
H137     H      0.316410000000     0.529210000000     0.552340000000     0.0465569  
H138     H      0.180040000000     0.462800000000     0.553510000000     0.0326304  
H139     H      0.226340000000     0.517680000000     0.560770000000     0.0510615  
H140     H      0.270940000000     0.473630000000     0.559150000000     0.049855   
H141     H      0.275750000000     0.510710000000     0.435400000000     0.0736436  
H142     H      0.146120000000     0.473970000000     0.445150000000     0.0513648  
H143     H      0.342610000000     0.485410000000     0.564150000000     0.0426865  
H144     H      0.198460000000     0.546990000000     0.528210000000     0.0647791  
H145     H      0.300050000000     0.466280000000     0.449840000000     0.0631497  
H146     H      0.154440000000     0.506460000000     0.567530000000     0.0437576  
H147     H      0.193300000000     0.527870000000     0.452200000000     0.0662654  
H148     H      0.298080000000     0.445740000000     0.524750000000     0.0575708  
H149     H      0.348190000000     0.517740000000     0.442050000000     0.0329127  
H150     H      0.175270000000     0.442300000000     0.475680000000     0.0365186  
H151     H      0.716750000000     0.482170000000     0.965400000000     0.0636377  
H152     H      0.819910000000     0.572130000000     0.000740000000     0.0554079  
H153     H      0.672190000000     0.507520000000     0.082100000000     0.0335725  
H154     H      0.717140000000     0.558910000000     0.069930000000     0.0485069  
H155     H      0.776130000000     0.569280000000     0.054550000000     0.0529669  
H156     H      0.766620000000     0.457620000000     0.989960000000     0.0689322  
H157     H      0.647980000000     0.467790000000     0.978430000000     0.0507579  
H158     H      0.847460000000     0.567130000000     0.045160000000     0.048983   
H159     H      0.693070000000     0.575000000000     0.025700000000     0.0614491  
H160     H      0.794310000000     0.460700000000     0.033310000000     0.0627998  
H161     H      0.645190000000     0.551700000000     0.073530000000     0.0445804  
H162     H      0.689480000000     0.525840000000     0.965830000000     0.0710258  
H163     H      0.797630000000     0.525740000000     0.075190000000     0.0559297  
H164     H      0.837160000000     0.461650000000     0.976520000000     0.032781   
H165     H      0.676260000000     0.456090000000     0.021490000000     0.0354037  
H166     H      0.271520000000     0.532340000000     0.956070000000     0.0568214  
H167     H      0.172390000000     0.437280000000     0.008910000000     0.0505355  
H168     H      0.314760000000     0.530760000000     0.073400000000     0.0376016  
H169     H      0.275390000000     0.473480000000     0.071840000000     0.0499813  
H170     H      0.218900000000     0.452850000000     0.057090000000     0.0520373  
H171     H      0.216750000000     0.550970000000     0.972900000000     0.0672317  
H172     H      0.340180000000     0.551070000000     0.965540000000     0.0438315  
H173     H      0.146640000000     0.449710000000     0.052970000000     0.0440556  
H174     H      0.301650000000     0.451950000000     0.031280000000     0.059892   
H175     H      0.191080000000     0.554900000000     0.017520000000     0.062609   
H176     H      0.345300000000     0.488230000000     0.075760000000     0.051198   
H177     H      0.300970000000     0.490610000000     0.962550000000     0.064246   
H178     H      0.195280000000     0.497650000000     0.072060000000     0.0571424  
H179     H      0.147170000000     0.539190000000     0.963720000000     0.0316796  
H180     H      0.310790000000     0.569200000000     0.005630000000     0.0345661  
H181     H      0.961160000000     0.424110000000     0.734810000000     0.0578726  
H182     H      0.049140000000     0.490000000000     0.830850000000     0.0517536  
H183     H      0.008540000000     0.536200000000     0.696080000000     0.0354146  
H184     H      0.058930000000     0.507560000000     0.741780000000     0.0515452  
H185     H      0.026640000000     0.540670000000     0.781940000000     0.0508405  
H186     H      0.939400000000     0.445680000000     0.787080000000     0.0708617  
H187     H      0.957070000000     0.437000000000     0.663440000000     0.0455958  
H188     H      0.035000000000     0.535200000000     0.853640000000     0.0472607  
H189     H      0.059390000000     0.464070000000     0.714340000000     0.0612362  
H190     H      0.932420000000     0.492770000000     0.806670000000     0.0667778  
H191     H      0.051300000000     0.520000000000     0.670000000000     0.0439778  
H192     H      0.006820000000     0.418050000000     0.711540000000     0.0641437  
H193     H      0.981360000000     0.544090000000     0.806200000000     0.0599049  
H194     H      0.944820000000     0.447980000000     0.859980000000     0.0367263  
H195     H      0.944200000000     0.479700000000     0.691250000000     0.0365383  
H196     H      0.051370000000     0.485270000000     0.238380000000     0.0615773  
H197     H      0.003920000000     0.568170000000     0.343380000000     0.0500398  
H198     H      0.937520000000     0.514190000000     0.187930000000     0.0343715  
H199     H      0.951060000000     0.566440000000     0.232600000000     0.0482861  
H200     H      0.955510000000     0.568030000000     0.293820000000     0.051018   
H201     H      0.019510000000     0.456560000000     0.282260000000     0.0671426  
H202     H      0.042230000000     0.471780000000     0.167740000000     0.0446353  
H203     H      0.957300000000     0.559820000000     0.365850000000     0.0437542  
H204     H      0.997120000000     0.578150000000     0.210360000000     0.0589416  
H205     H      0.974000000000     0.458880000000     0.306120000000     0.0618798  
H206     H      0.949930000000     0.557400000000     0.160760000000     0.045293   
H207     H      0.052890000000     0.528730000000     0.210710000000     0.0644513  
H208     H      0.933370000000     0.523050000000     0.309780000000     0.0549402  
H209     H      0.025820000000     0.455300000000     0.354430000000     0.0313574  
H210     H      0.998450000000     0.458930000000     0.194130000000     0.0342415  
H211     H      0.072500000000     0.714000000000     0.533300000000     0.0498601  
H212     H      0.961850000000     0.812190000000     0.473930000000     0.0473819  
H213     H      0.956930000000     0.677350000000     0.552310000000     0.0331435  
H214     H      0.949850000000     0.721180000000     0.495240000000     0.0509746  
H215     H      0.951740000000     0.771080000000     0.532610000000     0.0503164  
H216     H      0.075460000000     0.768860000000     0.497170000000     0.0722485  
H217     H      0.063920000000     0.642780000000     0.544790000000     0.0447907  
H218     H      0.949390000000     0.841630000000     0.515630000000     0.0428889  
H219     H      0.982620000000     0.692360000000     0.467130000000     0.0652121  
H220     H      0.061960000000     0.796520000000     0.540100000000     0.0619685  
H221     H      0.942730000000     0.650170000000     0.509460000000     0.0441283  
H222     H      0.059080000000     0.688220000000     0.488880000000     0.0635299  
H223     H      0.986270000000     0.798730000000     0.559720000000     0.0581128  
H224     H      0.071810000000     0.841080000000     0.485590000000     0.0311843  
H225     H      0.032280000000     0.672900000000     0.574410000000     0.0351047  
H226     H      0.928490000000     0.272300000000     0.508750000000     0.0496774  
H227     H      0.051650000000     0.176150000000     0.468900000000     0.0459964  
H228     H      0.043040000000     0.317180000000     0.531250000000     0.0332319  
H229     H      0.052990000000     0.271390000000     0.476820000000     0.0511332  
H230     H      0.052540000000     0.225610000000     0.520400000000     0.0503577  
H231     H      0.932390000000     0.215370000000     0.475890000000     0.0724653  
H232     H      0.932780000000     0.343690000000     0.520460000000     0.0425033  
H233     H      0.058970000000     0.152610000000     0.515340000000     0.0418711  
H234     H      0.019590000000     0.297290000000     0.446530000000     0.0637902  
H235     H      0.943870000000     0.192560000000     0.522280000000     0.0658789  
H236     H      0.054460000000     0.344070000000     0.487440000000     0.0441366  
H237     H      0.943400000000     0.298450000000     0.465050000000     0.0604397  
H238     H      0.017710000000     0.199600000000     0.548940000000     0.0588339  
H239     H      0.941680000000     0.143490000000     0.470600000000     0.0346115  
H240     H      0.964640000000     0.315590000000     0.551870000000     0.0368173  
H241     H      0.738330000000     0.055590000000     0.497520000000     0.0618728  
H242     H      0.830170000000     0.968530000000     0.536770000000     0.0494099  
H243     H      0.679300000000     0.969690000000     0.434010000000     0.0363141  
H244     H      0.725170000000     0.930640000000     0.471360000000     0.0478268  
H245     H      0.783600000000     0.929300000000     0.500820000000     0.0508386  
H246     H      0.783190000000     0.049010000000     0.453850000000     0.070112   
H247     H      0.664880000000     0.060910000000     0.500050000000     0.0448896  
H248     H      0.855350000000     0.932750000000     0.507380000000     0.0411968  
H249     H      0.706270000000     0.947700000000     0.518050000000     0.0570782  
H250     H      0.805550000000     0.011130000000     0.426600000000     0.0646331  
H251     H      0.653940000000     0.939160000000     0.468890000000     0.0431709  
H252     H      0.716200000000     0.025600000000     0.533870000000     0.0643468  
H253     H      0.807060000000     0.938560000000     0.454100000000     0.0575673  
H254     H      0.857140000000     0.047430000000     0.456620000000     0.0341268  
H255     H      0.683790000000     0.047420000000     0.452740000000     0.0350022  
H256     H      0.236220000000     0.946050000000     0.498640000000     0.0636018  
H257     H      0.326880000000     0.033080000000     0.457130000000     0.0512291  
H258     H      0.181550000000     0.029240000000     0.570140000000     0.0360052  
H259     H      0.224750000000     0.069810000000     0.530910000000     0.0474492  
H260     H      0.281340000000     0.071570000000     0.495350000000     0.0509766  
H261     H      0.282860000000     0.951320000000     0.540680000000     0.0691234  
H262     H      0.163400000000     0.939360000000     0.504230000000     0.0463018  
H263     H      0.353380000000     0.068250000000     0.486120000000     0.0417631  
H264     H      0.202190000000     0.054640000000     0.485250000000     0.0576767  
H265     H      0.306970000000     0.988530000000     0.567400000000     0.0631617  
H266     H      0.153280000000     0.060580000000     0.538320000000     0.0431918  
H267     H      0.210320000000     0.977130000000     0.465890000000     0.0671665  
H268     H      0.306850000000     0.062130000000     0.540950000000     0.0557857  
H269     H      0.356100000000     0.951820000000     0.533400000000     0.0315817  
H270     H      0.186450000000     0.953430000000     0.549500000000     0.0341954  
H271     H      0.963110000000     0.778260000000     0.026630000000     0.0657555  
H272     H      0.003540000000     0.675520000000     0.941250000000     0.0500937  
H273     H      0.080340000000     0.822740000000     0.005750000000     0.0341578  
H274     H      0.070350000000     0.777070000000     0.954060000000     0.0484294  
H275     H      0.058750000000     0.717190000000     0.947540000000     0.0506991  
H276     H      0.988530000000     0.730920000000     0.055690000000     0.0677679  
H277     H      0.975040000000     0.847520000000     0.040270000000     0.0507017  
H278     H      0.046180000000     0.646440000000     0.950050000000     0.0445151  
H279     H      0.026840000000     0.800690000000     0.936170000000     0.060666   
H280     H      0.030500000000     0.701420000000     0.054600000000     0.0626339  
H281     H      0.073550000000     0.848960000000     0.960580000000     0.045895   
H282     H      0.965730000000     0.804770000000     0.982320000000     0.0719507  
H283     H      0.074760000000     0.695740000000     0.993060000000     0.0559438  
H284     H      0.972670000000     0.660640000000     0.051720000000     0.0319197  
H285     H      0.017210000000     0.819650000000     0.055060000000     0.0355149  
H286     H      0.953910000000     0.278760000000     0.968340000000     0.0590982  
H287     H      0.064950000000     0.185940000000     0.997080000000     0.0509686  
H288     H      0.978640000000     0.324340000000     0.082010000000     0.0330601  
H289     H      0.030260000000     0.280030000000     0.072620000000     0.0476009  
H290     H      0.052340000000     0.225720000000     0.052240000000     0.0508167  
H291     H      0.944610000000     0.220940000000     0.980480000000     0.0686604  
H292     H      0.940740000000     0.347600000000     0.979180000000     0.0500932  
H293     H      0.061940000000     0.155570000000     0.039780000000     0.0441203  
H294     H      0.049210000000     0.304290000000     0.029430000000     0.0611421  
H295     H      0.948810000000     0.192070000000     0.022970000000     0.0627233  
H296     H      0.022850000000     0.351900000000     0.075670000000     0.0443625  
H297     H      0.997900000000     0.305780000000     0.965210000000     0.0728551  
H298     H      0.011850000000     0.196670000000     0.069470000000     0.0563556  
H299     H      0.960630000000     0.153350000000     0.964390000000     0.0320523  
H300     H      0.929790000000     0.319780000000     0.022770000000     0.034786   
H301     H      0.740670000000     0.979320000000     0.058840000000     0.0513636  
H302     H      0.839890000000     0.993260000000     0.931120000000     0.0517837  
H303     H      0.695080000000     0.080570000000     0.016680000000     0.0383323  
H304     H      0.741990000000     0.066910000000     0.968860000000     0.0488616  
H305     H      0.794340000000     0.042000000000     0.944830000000     0.0521094  
H306     H      0.792660000000     0.953930000000     0.035350000000     0.0754531  
H307     H      0.668610000000     0.984050000000     0.063160000000     0.0480274  
H308     H      0.866580000000     0.037140000000     0.940940000000     0.0451047  
H309     H      0.717030000000     0.024390000000     0.949830000000     0.0608324  
H310     H      0.818300000000     0.996520000000     0.052450000000     0.0672613  
H311     H      0.669340000000     0.071330000000     0.971600000000     0.0490592  
H312     H      0.715740000000     0.960020000000     0.016200000000     0.0671094  
H313     H      0.819450000000     0.059910000000     0.987900000000     0.0580829  
H314     H      0.865170000000     0.949660000000     0.032120000000     0.0373135  
H315     H      0.695110000000     0.028790000000     0.070470000000     0.0359329  
H316     H      0.241200000000     0.037670000000     0.060940000000     0.0587379  
H317     H      0.339030000000     0.954290000000     0.994480000000     0.0481699  
H318     H      0.198190000000     0.005170000000     0.945660000000     0.0400115  
H319     H      0.243400000000     0.950900000000     0.964700000000     0.050309   
H320     H      0.293090000000     0.976610000000     0.942340000000     0.0511964  
H321     H      0.290360000000     0.064010000000     0.037980000000     0.0677049  
H322     H      0.169950000000     0.044430000000     0.050860000000     0.04528    
H323     H      0.364390000000     0.971160000000     0.951510000000     0.0437746  
H324     H      0.218640000000     0.944610000000     0.009550000000     0.059889   
H325     H      0.313910000000     0.070480000000     0.992710000000     0.06296    
H326     H      0.172610000000     0.960530000000     0.956310000000     0.0487321  
H327     H      0.217700000000     0.992020000000     0.062350000000     0.0646636  
H328     H      0.315770000000     0.022690000000     0.940350000000     0.0583425  
H329     H      0.362220000000     0.057530000000     0.042880000000     0.0321451  
H330     H      0.196150000000     0.060950000000     0.008180000000     0.0371691  
H331     H      0.988680000000     0.933640000000     0.720150000000     0.0489307  
H332     H      0.043890000000     0.050910000000     0.814320000000     0.0511449  
H333     H      0.964160000000     0.046150000000     0.677280000000     0.0361356  
H334     H      0.019910000000     0.058280000000     0.721090000000     0.0523002  
H335     H      0.985210000000     0.056240000000     0.772960000000     0.0532331  
H336     H      0.027830000000     0.934860000000     0.773600000000     0.0709471  
H337     H      0.975880000000     0.938090000000     0.648620000000     0.044111   
H338     H      0.001860000000     0.061130000000     0.844000000000     0.0493782  
H339     H      0.050070000000     0.025920000000     0.693880000000     0.0646963  
H340     H      0.984760000000     0.946280000000     0.801860000000     0.0641479  
H341     H      0.006130000000     0.060810000000     0.649170000000     0.0456208  
H342     H      0.031990000000     0.947740000000     0.693060000000     0.06047    
H343     H      0.960170000000     0.021050000000     0.801770000000     0.0609999  
H344     H      0.040650000000     0.941170000000     0.845470000000     0.0311716  
H345     H      0.945710000000     0.970350000000     0.677530000000     0.0374945  
H346     H      0.046370000000     0.932780000000     0.275860000000     0.051939   
H347     H      0.989730000000     0.049230000000     0.180220000000     0.0471516  
H348     H      0.055440000000     0.046400000000     0.323550000000     0.0363315  
H349     H      0.005530000000     0.054280000000     0.273040000000     0.0535605  
H350     H      0.045810000000     0.055000000000     0.224600000000     0.0516717  
H351     H      0.009080000000     0.931910000000     0.219760000000     0.0721621  
H352     H      0.050620000000     0.936650000000     0.348860000000     0.049803   
H353     H      0.032700000000     0.060290000000     0.152270000000     0.0423168  
H354     H      0.974550000000     0.019180000000     0.295730000000     0.0679188  
H355     H      0.052050000000     0.946340000000     0.192780000000     0.0636679  
H356     H      0.009120000000     0.055750000000     0.346500000000     0.0513059  
H357     H      0.999320000000     0.942430000000     0.298280000000     0.0641762  
H358     H      0.073590000000     0.021590000000     0.196110000000     0.0593209  
H359     H      0.996970000000     0.939620000000     0.147980000000     0.0310696  
H360     H      0.081090000000     0.971860000000     0.323880000000     0.0390065  
N1       N      0.504990000000     0.519760000000     0.867450000000    -0.171846   
N2       N      0.480890000000     0.515180000000     0.662180000000    -0.164244   
N3       N      0.491980000000     0.502500000000     0.165400000000    -0.17182    
N4       N      0.510640000000     0.499240000000     0.366310000000    -0.163895   
N5       N      0.496930000000     0.655020000000     0.503850000000    -0.170638   
N6       N      0.503580000000     0.858330000000     0.520420000000    -0.164782   
N7       N      0.510730000000     0.155670000000     0.490440000000    -0.171441   
N8       N      0.503750000000     0.358820000000     0.525320000000    -0.164062   
N9       N      0.527720000000     0.865490000000     0.990530000000    -0.169798   
N10      N      0.493990000000     0.662800000000     0.021920000000    -0.163938   
N11      N      0.511870000000     0.162070000000     0.015350000000    -0.171092   
N12      N      0.484530000000     0.365350000000     0.000980000000    -0.164483   
N13      N      0.518430000000     0.024480000000     0.854540000000    -0.170081   
N14      N      0.520910000000     0.015980000000     0.648960000000    -0.162925   
N15      N      0.507680000000     0.998030000000     0.153370000000    -0.169558   
N16      N      0.498840000000     0.993000000000     0.352750000000    -0.162062   
N17      N      0.644990000000     0.517240000000     0.522010000000    -0.171891   
N18      N      0.848170000000     0.498380000000     0.516470000000    -0.164828   
N19      N      0.349000000000     0.506500000000     0.504340000000    -0.171482   
N20      N      0.146500000000     0.487380000000     0.507310000000    -0.163975   
N21      N      0.846320000000     0.516360000000     0.006890000000    -0.170641   
N22      N      0.642420000000     0.507890000000     0.027560000000    -0.163514   
N23      N      0.142880000000     0.491610000000     0.005390000000    -0.17146    
N24      N      0.346730000000     0.520940000000     0.021040000000    -0.163735   
N25      N      0.994840000000     0.486600000000     0.861380000000    -0.169541   
N26      N      0.999450000000     0.484270000000     0.662900000000    -0.164436   
N27      N      0.996850000000     0.510400000000     0.364790000000    -0.171172   
N28      N      0.992890000000     0.510800000000     0.160140000000    -0.164103   
N29      N      0.009800000000     0.844790000000     0.496340000000    -0.171796   
N30      N      0.002680000000     0.642690000000     0.528810000000    -0.163701   
N31      N      0.002080000000     0.144480000000     0.488630000000    -0.172296   
N32      N      0.994440000000     0.347400000000     0.507460000000    -0.164535   
N33      N      0.860020000000     0.992440000000     0.487550000000    -0.171974   
N34      N      0.655350000000     0.000970000000     0.482220000000    -0.165002   
N35      N      0.358260000000     0.008230000000     0.504900000000    -0.172367   
N36      N      0.154640000000     0.999310000000     0.522660000000    -0.164475   
N37      N      0.004440000000     0.649770000000     0.997960000000    -0.170969   
N38      N      0.026090000000     0.852390000000     0.002690000000    -0.164266   
N39      N      0.013820000000     0.150950000000     0.998520000000    -0.170984   
N40      N      0.981430000000     0.353870000000     0.027520000000    -0.163617   
N41      N      0.869870000000     0.992300000000     0.985660000000    -0.170084   
N42      N      0.664960000000     0.026640000000     0.016290000000    -0.162178   
N43      N      0.367530000000     0.008990000000     0.002500000000    -0.170449   
N44      N      0.167030000000     0.006700000000     0.999750000000    -0.162562   
N45      N      0.025030000000     0.002230000000     0.848130000000    -0.170763   
N46      N      0.989800000000     0.999720000000     0.645090000000    -0.163227   
N47      N      0.010560000000     0.001180000000     0.146790000000    -0.171562   
N48      N      0.031270000000     0.996630000000     0.351410000000    -0.162335   
O1       O      0.018210000000     0.001570000000     0.997500000000    -0.367171   
O2       O      0.002110000000     0.027440000000     0.906170000000    -0.298967   
O3       O      0.109200000000     0.982720000000     0.975590000000    -0.299234   
O4       O      0.039080000000     0.092680000000     0.020350000000    -0.303402   
O5       O      0.041860000000     0.976090000000     0.907730000000    -0.295514   
O6       O      0.991650000000     0.091710000000     0.975930000000    -0.29791    
O7       O      0.107350000000     0.026080000000     0.024140000000    -0.300605   
O8       O      0.993020000000     0.976900000000     0.086720000000    -0.295956   
O9       O      0.046780000000     0.911330000000     0.978050000000    -0.302426   
O10      O      0.034630000000     0.026760000000     0.089320000000    -0.303158   
O11      O      0.997640000000     0.910420000000     0.020400000000    -0.300824   
O12      O      0.927790000000     0.974680000000     0.014910000000    -0.295361   
O13      O      0.928660000000     0.019700000000     0.967910000000    -0.301142   
O14      O      0.008270000000     0.994920000000     0.497810000000    -0.368153   
O15      O      0.027620000000     0.088720000000     0.515900000000    -0.304326   
O16      O      0.998020000000     0.017420000000     0.405880000000    -0.297376   
O17      O      0.101440000000     0.972480000000     0.491770000000    -0.300355   
O18      O      0.981130000000     0.083600000000     0.470970000000    -0.29549    
O19      O      0.092930000000     0.023200000000     0.531700000000    -0.304402   
O20      O      0.043800000000     0.971410000000     0.412470000000    -0.296558   
O21      O      0.983370000000     0.903120000000     0.516110000000    -0.306219   
O22      O      0.919540000000     0.014550000000     0.465960000000    -0.298327   
O23      O      0.037410000000     0.903750000000     0.480280000000    -0.296054   
O24      O      0.917480000000     0.969490000000     0.512910000000    -0.302462   
O25      O      0.980250000000     0.970320000000     0.585430000000    -0.301651   
O26      O      0.014730000000     0.025520000000     0.588140000000    -0.300534   
O27      O      0.994320000000     0.501320000000     0.010550000000    -0.367981   
O28      O      0.017240000000     0.514760000000     0.918160000000    -0.300313   
O29      O      0.964030000000     0.411150000000     0.997140000000    -0.298228   
O30      O      0.084000000000     0.473870000000     0.032830000000    -0.301685   
O31      O      0.970140000000     0.470400000000     0.922050000000    -0.292537   
O32      O      0.084670000000     0.517180000000     0.984290000000    -0.299798   
O33      O      0.010560000000     0.412400000000     0.042600000000    -0.301319   
O34      O      0.971890000000     0.531050000000     0.099400000000    -0.303608   
O35      O      0.902410000000     0.484110000000     0.988690000000    -0.296058   
O36      O      0.017800000000     0.485320000000     0.102900000000    -0.303026   
O37      O      0.906830000000     0.534680000000     0.029300000000    -0.30065    
O38      O      0.979840000000     0.594950000000     0.028040000000    -0.297912   
O39      O      0.021510000000     0.587860000000     0.978680000000    -0.30452    
O40      O      0.997550000000     0.495430000000     0.513680000000    -0.369044   
O41      O      0.969340000000     0.405500000000     0.528960000000    -0.304741   
O42      O      0.014760000000     0.477180000000     0.420610000000    -0.29657    
O43      O      0.906530000000     0.519720000000     0.490810000000    -0.302991   
O44      O      0.019630000000     0.406190000000     0.487530000000    -0.30253    
O45      O      0.907000000000     0.476530000000     0.539400000000    -0.306483   
O46      O      0.976790000000     0.529540000000     0.426300000000    -0.302387   
O47      O      0.027750000000     0.581710000000     0.540730000000    -0.301248   
O48      O      0.085770000000     0.473750000000     0.482740000000    -0.300369   
O49      O      0.974310000000     0.587280000000     0.503790000000    -0.300938   
O50      O      0.090360000000     0.508610000000     0.537490000000    -0.302483   
O51      O      0.023190000000     0.510630000000     0.605540000000    -0.303148   
O52      O      0.975980000000     0.466290000000     0.602490000000    -0.30533    
O53      O      0.516820000000     0.013480000000     0.004300000000    -0.366434   
O54      O      0.427110000000     0.988450000000     0.978740000000    -0.299561   
O55      O      0.489850000000     0.027900000000     0.095760000000    -0.299672   
O56      O      0.546690000000     0.923560000000     0.018450000000    -0.29615    
O57      O      0.425580000000     0.032690000000     0.026400000000    -0.296406   
O58      O      0.498680000000     0.923940000000     0.974520000000    -0.300285   
O59      O      0.535170000000     0.981610000000     0.093930000000    -0.295453   
O60      O      0.606810000000     0.043180000000     0.986850000000    -0.297052   
O61      O      0.491480000000     0.101090000000     0.034530000000    -0.303624   
O62      O      0.607080000000     0.996730000000     0.032400000000    -0.299188   
O63      O      0.535660000000     0.105970000000     0.987080000000    -0.294853   
O64      O      0.540900000000     0.042940000000     0.915410000000    -0.295689   
O65      O      0.495840000000     0.996380000000     0.911590000000    -0.300397   
O66      O      0.507470000000     0.006600000000     0.500870000000    -0.366936   
O67      O      0.416270000000     0.031770000000     0.481150000000    -0.300535   
O68      O      0.481370000000     0.919860000000     0.534060000000    -0.303079   
O69      O      0.521710000000     0.972530000000     0.412740000000    -0.300533   
O70      O      0.417260000000     0.986920000000     0.528230000000    -0.30309    
O71      O      0.480850000000     0.023090000000     0.410380000000    -0.29595    
O72      O      0.527710000000     0.912480000000     0.489140000000    -0.303343   
O73      O      0.601190000000     0.029910000000     0.509620000000    -0.301368   
O74      O      0.489340000000     0.993920000000     0.593690000000    -0.302103   
O75      O      0.593960000000     0.976370000000     0.473600000000    -0.306584   
O76      O      0.540750000000     0.033280000000     0.586690000000    -0.30007    
O77      O      0.535640000000     0.098050000000     0.514350000000    -0.302911   
O78      O      0.484720000000     0.096160000000     0.473980000000    -0.296914   
O79      O      0.494570000000     0.513690000000     0.016300000000    -0.369639   
O80      O      0.404830000000     0.537670000000     0.991390000000    -0.300413   
O81      O      0.464310000000     0.422990000000     0.028810000000    -0.303716   
O82      O      0.521740000000     0.493720000000     0.926940000000    -0.297765   
O83      O      0.405320000000     0.496280000000     0.041770000000    -0.301467   
O84      O      0.477580000000     0.541320000000     0.925130000000    -0.303152   
O85      O      0.515520000000     0.423570000000     0.989010000000    -0.303671   
O86      O      0.583170000000     0.533430000000     0.046350000000    -0.302147   
O87      O      0.474930000000     0.480320000000     0.104340000000    -0.29796    
O88      O      0.584850000000     0.488750000000     0.998980000000    -0.299973   
O89      O      0.510810000000     0.534170000000     0.109140000000    -0.30465    
O90      O      0.516600000000     0.603420000000     0.043650000000    -0.301781   
O91      O      0.472670000000     0.604790000000     0.995720000000    -0.301989   
O92      O      0.497220000000     0.507080000000     0.514340000000    -0.372863   
O93      O      0.409080000000     0.523680000000     0.480030000000    -0.292902   
O94      O      0.472470000000     0.417130000000     0.535750000000    -0.304197   
O95      O      0.523270000000     0.475410000000     0.427830000000    -0.303502   
O96      O      0.406030000000     0.487090000000     0.533860000000    -0.305077   
O97      O      0.485640000000     0.528020000000     0.421630000000    -0.297473   
O98      O      0.529510000000     0.417230000000     0.504490000000    -0.302724   
O99      O      0.584340000000     0.529810000000     0.547630000000    -0.293585   
O100     O      0.470810000000     0.484850000000     0.603210000000    -0.304976   
O101     O      0.589120000000     0.492710000000     0.494220000000    -0.304086   
O102     O      0.506410000000     0.539190000000     0.604660000000    -0.300175   
O103     O      0.521210000000     0.598170000000     0.529680000000    -0.299033   
O104     O      0.471310000000     0.595310000000     0.487950000000    -0.290164   
Zn1      Zn     0.985990000000     0.034300000000     0.963050000000     0.454241   
Zn2      Zn     0.052730000000     0.968760000000     0.965580000000     0.456179   
Zn3      Zn     0.049120000000     0.035620000000     0.032040000000     0.449905   
Zn4      Zn     0.984860000000     0.967190000000     0.028890000000     0.45746    
Zn5      Zn     0.034830000000     0.032260000000     0.532360000000     0.45241    
Zn6      Zn     0.977320000000     0.025990000000     0.460950000000     0.458721   
Zn7      Zn     0.046760000000     0.961510000000     0.471310000000     0.452373   
Zn8      Zn     0.973750000000     0.960210000000     0.527270000000     0.455294   
Zn9      Zn     0.028200000000     0.529600000000     0.974170000000     0.460603   
Zn10     Zn     0.958740000000     0.467620000000     0.980460000000     0.457033   
Zn11     Zn     0.026220000000     0.469360000000     0.046140000000     0.450619   
Zn12     Zn     0.964340000000     0.539400000000     0.041130000000     0.455043   
Zn13     Zn     0.963510000000     0.461970000000     0.544970000000     0.455028   
Zn14     Zn     0.028040000000     0.463880000000     0.476980000000     0.45522    
Zn15     Zn     0.964490000000     0.531980000000     0.484480000000     0.449849   
Zn16     Zn     0.033910000000     0.523260000000     0.548310000000     0.450978   
Zn17     Zn     0.485280000000     0.981390000000     0.968400000000     0.452302   
Zn18     Zn     0.482200000000     0.043100000000     0.039120000000     0.458328   
Zn19     Zn     0.550520000000     0.979760000000     0.036310000000     0.455851   
Zn20     Zn     0.549250000000     0.049940000000     0.973910000000     0.455511   
Zn21     Zn     0.473400000000     0.038600000000     0.467520000000     0.455155   
Zn22     Zn     0.474620000000     0.978190000000     0.538250000000     0.45402    
Zn23     Zn     0.536290000000     0.967790000000     0.470130000000     0.455528   
Zn24     Zn     0.545380000000     0.040960000000     0.527370000000     0.447034   
Zn25     Zn     0.462980000000     0.547940000000     0.982610000000     0.450202   
Zn26     Zn     0.461130000000     0.479100000000     0.046860000000     0.457416   
Zn27     Zn     0.528410000000     0.480880000000     0.984100000000     0.45807    
Zn28     Zn     0.525400000000     0.545600000000     0.052660000000     0.451714   
Zn29     Zn     0.466520000000     0.537470000000     0.477040000000     0.460029   
Zn30     Zn     0.462620000000     0.474640000000     0.545550000000     0.454023   
Zn31     Zn     0.533660000000     0.473660000000     0.486220000000     0.452307   
Zn32     Zn     0.526440000000     0.542280000000     0.548530000000     0.455342   


