data_structure

_audit_creation_method RASPA-1.0
_audit_creation_date 2023-5-25
_audit_author_name 'Poobodin Mano'

_cell_length_a    33.9886
_cell_length_b    33.9391
_cell_length_c    33.8605
_cell_angle_alpha 90
_cell_angle_beta  90
_cell_angle_gamma 90
_cell_volume      39059.5

_symmetry_cell_setting          triclinic
_symmetry_space_group_name_Hall 'P 1'
_symmetry_space_group_name_H-M  'P 1'
_symmetry_Int_Tables_number     1

_symmetry_equiv_pos_as_xyz 'x,y,z'

loop_
_atom_site_label
_atom_site_type_symbol
_atom_site_fract_x
_atom_site_fract_y
_atom_site_fract_z
_atom_site_charge
C1       C      0.996430000000     0.987540000000     0.124100000000     0.366862   
C2       C      0.108370000000     0.985920000000     0.016510000000     0.363513   
C3       C      0.993810000000     0.881480000000     0.010960000000     0.363352   
C4       C      0.002310000000     0.990340000000     0.902880000000     0.366019   
C5       C      0.001270000000     0.097450000000     0.013980000000     0.36178    
C6       C      0.889960000000     0.992670000000     0.011750000000     0.366676   
C7       C      0.988470000000     0.008100000000     0.408190000000     0.36202    
C8       C      0.106260000000     0.012290000000     0.505510000000     0.366335   
C9       C      0.993790000000     0.120950000000     0.509070000000     0.363151   
C10      C      0.005370000000     0.023950000000     0.623880000000     0.364759   
C11      C      0.003060000000     0.903110000000     0.525940000000     0.361814   
C12      C      0.888870000000     0.006290000000     0.527160000000     0.36582    
C13      C      0.034260000000     0.488580000000     0.118650000000     0.365184   
C14      C      0.137790000000     0.498040000000     0.006980000000     0.361988   
C15      C      0.033060000000     0.381040000000     0.009700000000     0.361729   
C16      C      0.033710000000     0.491120000000     0.898340000000     0.365248   
C17      C      0.019480000000     0.598220000000     0.009790000000     0.36372    
C18      C      0.920230000000     0.483430000000     0.007030000000     0.361911   
C19      C      0.998650000000     0.619210000000     0.516830000000     0.363062   
C20      C      0.892380000000     0.504370000000     0.515060000000     0.363626   
C21      C      0.991580000000     0.526450000000     0.396910000000     0.363035   
C22      C      0.005480000000     0.402490000000     0.488370000000     0.365818   
C23      C      0.007020000000     0.496710000000     0.614400000000     0.362822   
C24      C      0.109920000000     0.512230000000     0.500620000000     0.362731   
C25      C      0.500620000000     0.133280000000     0.031550000000     0.360413   
C26      C      0.496430000000     0.012810000000     0.129370000000     0.367927   
C27      C      0.390030000000     0.026040000000     0.017460000000     0.364633   
C28      C      0.506490000000     0.917900000000     0.015380000000     0.35877    
C29      C      0.610450000000     0.031730000000     0.022340000000     0.366661   
C30      C      0.502900000000     0.033530000000     0.911700000000     0.36493    
C31      C      0.387230000000     0.006200000000     0.530300000000     0.36922    
C32      C      0.498800000000     0.113810000000     0.517790000000     0.362701   
C33      C      0.502990000000     0.001720000000     0.628250000000     0.360527   
C34      C      0.606730000000     0.004110000000     0.514890000000     0.369157   
C35      C      0.490280000000     0.007480000000     0.412500000000     0.362552   
C36      C      0.496140000000     0.895020000000     0.515070000000     0.363892   
C37      C      0.529100000000     0.631280000000     0.995740000000     0.36388    
C38      C      0.515980000000     0.521960000000     0.099790000000     0.361358   
C39      C      0.418310000000     0.520960000000     0.976550000000     0.364426   
C40      C      0.526360000000     0.412970000000     0.992400000000     0.365435   
C41      C      0.637140000000     0.520110000000     0.996530000000     0.361308   
C42      C      0.535340000000     0.525040000000     0.882610000000     0.363211   
C43      C      0.500450000000     0.491990000000     0.383480000000     0.360148   
C44      C      0.388990000000     0.508710000000     0.492420000000     0.366524   
C45      C      0.502650000000     0.401300000000     0.505360000000     0.36471    
C46      C      0.495240000000     0.523400000000     0.599380000000     0.36176    
C47      C      0.496780000000     0.617200000000     0.471990000000     0.36538    
C48      C      0.608330000000     0.515180000000     0.496590000000     0.362938   
C49      C      0.478500000000     0.494630000000     0.664400000000     0.00865305 
C50      C      0.534480000000     0.564280000000     0.820900000000     0.0159276  
C51      C      0.552780000000     0.492160000000     0.819700000000     0.109286   
C52      C      0.508480000000     0.559060000000     0.784420000000    -0.106248   
C53      C      0.507540000000     0.485370000000     0.697680000000    -0.0982184  
C54      C      0.525440000000     0.485470000000     0.784060000000    -0.130618   
C55      C      0.517260000000     0.522730000000     0.720210000000     0.0131633  
C56      C      0.520380000000     0.523160000000     0.760420000000     0.0343962  
C57      C      0.503340000000     0.564250000000     0.659810000000     0.00808521 
C58      C      0.531010000000     0.557050000000     0.694800000000    -0.0976101  
C59      C      0.464730000000     0.488950000000     0.319670000000     0.00832231 
C60      C      0.544400000000     0.536250000000     0.165540000000     0.0148699  
C61      C      0.473660000000     0.513770000000     0.159050000000     0.107626   
C62      C      0.551170000000     0.507600000000     0.199930000000    -0.106787   
C63      C      0.472820000000     0.512960000000     0.282320000000    -0.0968964  
C64      C      0.479450000000     0.485980000000     0.194400000000    -0.129684   
C65      C      0.509810000000     0.499020000000     0.261260000000     0.0133099  
C66      C      0.512660000000     0.499750000000     0.221040000000     0.0340335  
C67      C      0.535750000000     0.468940000000     0.323770000000     0.00849458 
C68      C      0.545770000000     0.493980000000     0.287390000000    -0.0982227  
C69      C      0.462150000000     0.831350000000     0.525970000000     0.00798625 
C70      C      0.533250000000     0.680110000000     0.469260000000     0.0170375  
C71      C      0.461440000000     0.677060000000     0.449870000000     0.109031   
C72      C      0.525590000000     0.715800000000     0.495490000000    -0.106569   
C73      C      0.451070000000     0.800600000000     0.494410000000    -0.0986075  
C74      C      0.452440000000     0.712670000000     0.476830000000    -0.130514   
C75      C      0.487510000000     0.777840000000     0.482340000000     0.0141602  
C76      C      0.488980000000     0.737770000000     0.482310000000     0.0346353  
C77      C      0.531950000000     0.833390000000     0.500390000000     0.00927688 
C78      C      0.521780000000     0.803000000000     0.468880000000    -0.0983771  
C79      C      0.467710000000     0.174970000000     0.494370000000     0.00892756 
C80      C      0.540590000000     0.339070000000     0.508610000000     0.0150576  
C81      C      0.469430000000     0.341930000000     0.530880000000     0.110124   
C82      C      0.533920000000     0.297600000000     0.491880000000    -0.106255   
C83      C      0.459720000000     0.214410000000     0.514580000000    -0.0984751  
C84      C      0.461300000000     0.302300000000     0.510650000000    -0.131858   
C85      C      0.497440000000     0.237940000000     0.517100000000     0.0135678  
C86      C      0.498310000000     0.277530000000     0.510050000000     0.0351916  
C87      C      0.537750000000     0.175270000000     0.519550000000     0.00741037 
C88      C      0.531440000000     0.216570000000     0.536770000000    -0.0975622  
C89      C      0.477510000000     0.853370000000     0.031340000000     0.00901995 
C90      C      0.562950000000     0.694810000000     0.008430000000     0.0146265  
C91      C      0.495350000000     0.692640000000     0.976710000000     0.110329   
C92      C      0.551520000000     0.732870000000     0.030190000000    -0.106054   
C93      C      0.475000000000     0.814780000000     0.008290000000    -0.0982748  
C94      C      0.482070000000     0.727510000000     0.002180000000    -0.132415   
C95      C      0.514380000000     0.793910000000     0.008780000000     0.0135305  
C96      C      0.516900000000     0.753790000000     0.011010000000     0.0354277  
C97      C      0.549760000000     0.859430000000     0.015250000000     0.00702708 
C98      C      0.548970000000     0.818850000000     0.995330000000    -0.0972835  
C99      C      0.535970000000     0.193120000000     0.053820000000     0.0078551  
C100     C      0.485590000000     0.353040000000     0.995270000000     0.0164493  
C101     C      0.559050000000     0.348330000000     0.983070000000     0.109249   
C102     C      0.487470000000     0.318650000000     0.024060000000    -0.107019   
C103     C      0.552140000000     0.225480000000     0.026560000000    -0.098343   
C104     C      0.561530000000     0.313340000000     0.012230000000    -0.130706   
C105     C      0.518890000000     0.252360000000     0.013900000000     0.0139229  
C106     C      0.522190000000     0.292350000000     0.014660000000     0.0346338  
C107     C      0.468950000000     0.198540000000     0.022550000000     0.00864577 
C108     C      0.483560000000     0.231720000000     0.995820000000    -0.097853   
C109     C      0.541200000000     0.009530000000     0.690020000000     0.00867176 
C110     C      0.470000000000     0.052280000000     0.849470000000     0.0158788  
C111     C      0.541180000000     0.030100000000     0.849650000000     0.108191   
C112     C      0.461190000000     0.026180000000     0.813580000000    -0.106852   
C113     C      0.532940000000     0.035810000000     0.725740000000    -0.0975281  
C114     C      0.533530000000     0.005170000000     0.812650000000    -0.129692   
C115     C      0.498160000000     0.020690000000     0.749420000000     0.0137802  
C116     C      0.498330000000     0.020220000000     0.789610000000     0.0344618  
C117     C      0.471300000000     0.984500000000     0.691590000000     0.00803561 
C118     C      0.461310000000     0.012420000000     0.725730000000    -0.0980911  
C119     C      0.525580000000     0.007840000000     0.348880000000     0.00896923 
C120     C      0.460020000000     0.987390000000     0.186970000000     0.015186   
C121     C      0.529890000000     0.013080000000     0.194310000000     0.108369   
C122     C      0.447620000000     0.008430000000     0.225000000000    -0.107226   
C123     C      0.518990000000     0.984690000000     0.310860000000    -0.0985128  
C124     C      0.518110000000     0.032700000000     0.233360000000    -0.130382   
C125     C      0.482600000000     0.999420000000     0.289810000000     0.0152536  
C126     C      0.482980000000     0.012240000000     0.251750000000     0.034982   
C127     C      0.452670000000     0.023260000000     0.352200000000     0.00920444 
C128     C      0.445540000000     0.999130000000     0.314560000000    -0.10048    
C129     C      0.668310000000     0.550380000000     0.518930000000     0.0070735  
C130     C      0.828920000000     0.475300000000     0.493560000000     0.0150784  
C131     C      0.831970000000     0.519500000000     0.553560000000     0.106984   
C132     C      0.792860000000     0.497510000000     0.478560000000    -0.106272   
C133     C      0.704340000000     0.536240000000     0.542450000000    -0.0981786  
C134     C      0.794090000000     0.540640000000     0.539950000000    -0.129473   
C135     C      0.729910000000     0.509360000000     0.517350000000     0.0146653  
C136     C      0.769710000000     0.514390000000     0.512990000000     0.0333588  
C137     C      0.673470000000     0.491130000000     0.474130000000     0.00824674 
C138     C      0.707320000000     0.475350000000     0.499130000000    -0.0984596  
C139     C      0.171600000000     0.536050000000     0.469630000000     0.00645313 
C140     C      0.327360000000     0.487900000000     0.525260000000     0.0139256  
C141     C      0.326400000000     0.537580000000     0.468380000000     0.107321   
C142     C      0.289320000000     0.469910000000     0.509130000000    -0.106753   
C143     C      0.210090000000     0.552630000000     0.486430000000    -0.0982029  
C144     C      0.287790000000     0.518660000000     0.454100000000    -0.130089   
C145     C      0.233040000000     0.519480000000     0.505620000000     0.0188592  
C146     C      0.265750000000     0.502170000000     0.489270000000     0.0343233  
C147     C      0.172710000000     0.483500000000     0.523610000000     0.00761391 
C148     C      0.210330000000     0.502140000000     0.539870000000    -0.100155   
C149     C      0.698780000000     0.533960000000     0.033100000000     0.00778006 
C150     C      0.858880000000     0.486140000000     0.967780000000     0.0155928  
C151     C      0.857190000000     0.466390000000     0.039820000000     0.108528   
C152     C      0.822740000000     0.512240000000     0.973440000000    -0.106254   
C153     C      0.732930000000     0.506050000000     0.043310000000    -0.098129   
C154     C      0.820960000000     0.493120000000     0.046420000000    -0.130171   
C155     C      0.758000000000     0.498630000000     0.007030000000     0.0136061  
C156     C      0.798180000000     0.498560000000     0.008260000000     0.0340815  
C157     C      0.700840000000     0.512100000000     0.961920000000     0.00814833 
C158     C      0.735310000000     0.484650000000     0.971060000000    -0.0977622  
C159     C      0.358490000000     0.479760000000     0.973630000000     0.00902081 
C160     C      0.197290000000     0.538990000000     0.017230000000     0.0143428  
C161     C      0.203230000000     0.467030000000     0.997810000000     0.10782    
C162     C      0.229280000000     0.550360000000     0.987200000000    -0.106684   
C163     C      0.321080000000     0.484390000000     0.998000000000    -0.0971893  
C164     C      0.235290000000     0.478070000000     0.967940000000    -0.129863   
C165     C      0.296240000000     0.518230000000     0.982610000000     0.0140857  
C166     C      0.256250000000     0.515540000000     0.980240000000     0.0339369  
C167     C      0.355920000000     0.551110000000     0.953530000000     0.00850978 
C168     C      0.317900000000     0.557050000000     0.977530000000    -0.0986237  
C169     C      0.029410000000     0.456050000000     0.670970000000     0.00710932 
C170     C      0.009650000000     0.520220000000     0.835770000000     0.0156305  
C171     C      0.067550000000     0.473130000000     0.835720000000     0.106639   
C172     C      0.992140000000     0.498860000000     0.800330000000    -0.107222   
C173     C      0.053950000000     0.466600000000     0.707600000000    -0.0983821  
C174     C      0.051450000000     0.453840000000     0.797590000000    -0.129445   
C175     C      0.029860000000     0.491420000000     0.736010000000     0.015048   
C176     C      0.024990000000     0.482210000000     0.775140000000     0.0336156  
C177     C      0.986240000000     0.515620000000     0.682020000000     0.00780342 
C178     C      0.012160000000     0.527740000000     0.716790000000    -0.098028   
C179     C      0.009250000000     0.564010000000     0.336400000000     0.00990867 
C180     C      0.015020000000     0.457250000000     0.181930000000     0.0168211  
C181     C      0.066260000000     0.510010000000     0.181200000000     0.10791    
C182     C      0.991740000000     0.477480000000     0.214730000000    -0.104795   
C183     C      0.030130000000     0.546470000000     0.300340000000    -0.0965669  
C184     C      0.045620000000     0.532100000000     0.215150000000    -0.127787   
C185     C      0.005430000000     0.517120000000     0.276510000000     0.0129233  
C186     C      0.015900000000     0.507290000000     0.238350000000     0.0317488  
C187     C      0.956150000000     0.514160000000     0.333950000000     0.00995799 
C188     C      0.974550000000     0.492870000000     0.298730000000    -0.0969915  
C189     C      0.993630000000     0.843850000000     0.567640000000     0.00666348 
C190     C      0.019950000000     0.684780000000     0.492750000000     0.0148954  
C191     C      0.967440000000     0.678700000000     0.545860000000     0.107098   
C192     C      0.038430000000     0.718940000000     0.515410000000    -0.10689    
C193     C      0.973270000000     0.804180000000     0.559840000000    -0.0981102  
C194     C      0.985320000000     0.714680000000     0.567280000000    -0.130645   
C195     C      0.997160000000     0.779470000000     0.531160000000     0.015159   
C196     C      0.006790000000     0.740840000000     0.537970000000     0.0342611  
C197     C      0.029160000000     0.839100000000     0.502320000000     0.00810616 
C198     C      0.007200000000     0.800940000000     0.493160000000    -0.0979855  
C199     C      0.021950000000     0.186250000000     0.525870000000     0.00804571 
C200     C      0.986240000000     0.343360000000     0.449710000000     0.014096   
C201     C      0.037630000000     0.338700000000     0.503600000000     0.109128   
C202     C      0.967710000000     0.304330000000     0.463400000000    -0.106049   
C203     C      0.036930000000     0.217040000000     0.496670000000    -0.0976755  
C204     C      0.017180000000     0.301940000000     0.519770000000    -0.130443   
C205     C      0.002320000000     0.240110000000     0.480430000000     0.0151421  
C206     C      0.996980000000     0.279630000000     0.486650000000     0.0345281  
C207     C      0.958660000000     0.181180000000     0.486970000000     0.00724379 
C208     C      0.972590000000     0.214230000000     0.459250000000    -0.0991357  
C209     C      0.825010000000     0.040830000000     0.528200000000     0.00877309 
C210     C      0.667780000000     0.968920000000     0.497080000000     0.015365   
C211     C      0.669810000000     0.040060000000     0.520430000000     0.10826    
C212     C      0.703090000000     0.958660000000     0.523370000000    -0.107474   
C213     C      0.787370000000     0.032410000000     0.505230000000    -0.0975799  
C214     C      0.705880000000     0.030350000000     0.545770000000    -0.130047   
C215     C      0.767040000000     0.996030000000     0.521230000000     0.0148251  
C216     C      0.727850000000     0.995210000000     0.529250000000     0.0341848  
C217     C      0.829840000000     0.969110000000     0.547720000000     0.00893309 
C218     C      0.792600000000     0.959590000000     0.523940000000    -0.0995637  
C219     C      0.169860000000     0.047920000000     0.507010000000     0.00897922 
C220     C      0.325410000000     0.973570000000     0.550600000000     0.0154732  
C221     C      0.325450000000     0.044960000000     0.528790000000     0.108663   
C222     C      0.289770000000     0.964750000000     0.524250000000    -0.107385   
C223     C      0.204240000000     0.039570000000     0.534720000000    -0.0977182  
C224     C      0.289500000000     0.037010000000     0.502710000000    -0.130476   
C225     C      0.226300000000     0.002990000000     0.521570000000     0.0143878  
C226     C      0.266170000000     0.002090000000     0.517970000000     0.0348313  
C227     C      0.167010000000     0.976230000000     0.487730000000     0.00841141 
C228     C      0.201100000000     0.966600000000     0.515840000000    -0.0992371  
C229     C      0.009570000000     0.660550000000     0.973630000000     0.00854122 
C230     C      0.971720000000     0.820290000000     0.043260000000     0.0159979  
C231     C      0.997790000000     0.819100000000     0.973110000000     0.107304   
C232     C      0.995260000000     0.783320000000     0.053610000000    -0.108194   
C233     C      0.983140000000     0.696280000000     0.980730000000    -0.0980054  
C234     C      0.019560000000     0.780490000000     0.982240000000    -0.129603   
C235     C      0.996280000000     0.719020000000     0.016880000000     0.0138359  
C236     C      0.001180000000     0.758820000000     0.016810000000     0.0349261  
C237     C      0.028600000000     0.660450000000     0.046020000000     0.00904935 
C238     C      0.000280000000     0.694600000000     0.054010000000    -0.0989502  
C239     C      0.028420000000     0.319150000000     0.047870000000     0.00795129 
C240     C      0.987770000000     0.159770000000     0.978840000000     0.0148832  
C241     C      0.009160000000     0.160190000000     0.050620000000     0.107819   
C242     C      0.015760000000     0.193940000000     0.969480000000    -0.106967   
C243     C      0.004410000000     0.281740000000     0.040810000000    -0.0969574  
C244     C      0.036010000000     0.195550000000     0.042030000000    -0.129927   
C245     C      0.020100000000     0.258580000000     0.005880000000     0.0138522  
C246     C      0.021990000000     0.218480000000     0.006260000000     0.0341792  
C247     C      0.051170000000     0.318590000000     0.976930000000     0.00885088 
C248     C      0.025820000000     0.282210000000     0.968370000000    -0.0986452  
C249     C      0.672390000000     0.047960000000     0.056980000000     0.00890873 
C250     C      0.827420000000     0.007910000000     0.977360000000     0.0164701  
C251     C      0.827320000000     0.978120000000     0.046050000000     0.108335   
C252     C      0.796060000000     0.037560000000     0.989920000000    -0.106615   
C253     C      0.708680000000     0.021660000000     0.062250000000    -0.0982868  
C254     C      0.796570000000     0.008670000000     0.059500000000    -0.130257   
C255     C      0.732260000000     0.020410000000     0.024280000000     0.0147159  
C256     C      0.772300000000     0.021690000000     0.024300000000     0.0341895  
C257     C      0.672140000000     0.035100000000     0.983720000000     0.00899512 
C258     C      0.709070000000     0.009790000000     0.987460000000    -0.0977995  
C259     C      0.327540000000     0.042960000000     0.984100000000     0.0088275  
C260     C      0.170260000000     0.993140000000     0.054250000000     0.0153481  
C261     C      0.171200000000     0.970630000000     0.982870000000     0.109156   
C262     C      0.204980000000     0.020650000000     0.046490000000    -0.106192   
C263     C      0.292560000000     0.016020000000     0.974200000000    -0.0982161  
C264     C      0.205100000000     0.999570000000     0.973960000000    -0.13148    
C265     C      0.268830000000     0.007770000000     0.011180000000     0.0141179  
C266     C      0.228760000000     0.007100000000     0.011110000000     0.0348373  
C267     C      0.327940000000     0.018270000000     0.054400000000     0.00914281 
C268     C      0.292280000000     0.992260000000     0.045970000000    -0.0984239  
C269     C      0.968730000000     0.002350000000     0.839170000000     0.00941121 
C270     C      0.042470000000     0.043390000000     0.683660000000     0.0154416  
C271     C      0.969940000000     0.026460000000     0.687620000000     0.108381   
C272     C      0.051050000000     0.018030000000     0.720270000000    -0.10676    
C273     C      0.979920000000     0.033610000000     0.808890000000    -0.0981751  
C274     C      0.977760000000     0.001130000000     0.724170000000    -0.129953   
C275     C      0.015320000000     0.020030000000     0.785420000000     0.0144363  
C276     C      0.014440000000     0.014870000000     0.745590000000     0.0351425  
C277     C      0.039070000000     0.978240000000     0.840850000000     0.00761504 
C278     C      0.050960000000     0.009480000000     0.810140000000    -0.0984555  
C279     C      0.024740000000     0.005690000000     0.345250000000     0.00899509 
C280     C      0.959900000000     0.970190000000     0.184700000000     0.0154009  
C281     C      0.030350000000     0.994870000000     0.188490000000     0.107409   
C282     C      0.948090000000     0.996520000000     0.219520000000    -0.108076   
C283     C      0.018620000000     0.981920000000     0.307540000000    -0.0979395  
C284     C      0.019130000000     0.020090000000     0.224390000000    -0.129543   
C285     C      0.982930000000     0.996590000000     0.285190000000     0.0145109  
C286     C      0.983600000000     0.003240000000     0.245540000000     0.0344842  
C287     C      0.952330000000     0.022950000000     0.346690000000     0.00913797 
C288     C      0.945400000000     0.998480000000     0.309200000000    -0.0999572  
H1       H      0.493260000000     0.462890000000     0.716730000000     0.0433275  
H2       H      0.563900000000     0.574570000000     0.810910000000     0.0323127  
H3       H      0.475690000000     0.577440000000     0.671400000000     0.0298437  
H4       H      0.534930000000     0.585000000000     0.711120000000     0.0442219  
H5       H      0.508510000000     0.586960000000     0.767560000000     0.0459527  
H6       H      0.538380000000     0.461410000000     0.765970000000     0.0526108  
H7       H      0.473210000000     0.467120000000     0.647410000000     0.0397965  
H8       H      0.521910000000     0.587970000000     0.839710000000     0.0376388  
H9       H      0.560530000000     0.549380000000     0.682940000000     0.0544021  
H10      H      0.496120000000     0.475490000000     0.794630000000     0.05747    
H11      H      0.516930000000     0.586180000000     0.639600000000     0.0401474  
H12      H      0.534980000000     0.472610000000     0.685220000000     0.0522599  
H13      H      0.477660000000     0.554560000000     0.794440000000     0.0551711  
H14      H      0.551930000000     0.464830000000     0.837920000000     0.0163398  
H15      H      0.449990000000     0.503810000000     0.677710000000     0.0312403  
H16      H      0.603670000000     0.473100000000     0.792270000000     0.0792396  
H17      H      0.611250000000     0.504610000000     0.830590000000     0.0909049  
H18      H      0.446080000000     0.512690000000     0.263690000000     0.0446035  
H19      H      0.536750000000     0.565680000000     0.177790000000     0.0353354  
H20      H      0.529600000000     0.438260000000     0.313970000000     0.0317313  
H21      H      0.569940000000     0.478590000000     0.271560000000     0.0436992  
H22      H      0.573390000000     0.521360000000     0.219630000000     0.0460604  
H23      H      0.451090000000     0.481280000000     0.209770000000     0.0525427  
H24      H      0.440140000000     0.502790000000     0.336290000000     0.0397196  
H25      H      0.572530000000     0.539360000000     0.149070000000     0.0387911  
H26      H      0.556500000000     0.523440000000     0.296890000000     0.0524303  
H27      H      0.487810000000     0.456520000000     0.182750000000     0.0591054  
H28      H      0.561900000000     0.468200000000     0.343500000000     0.0400891  
H29      H      0.477470000000     0.544200000000     0.291030000000     0.0553148  
H30      H      0.563330000000     0.479380000000     0.188600000000     0.0528801  
H31      H      0.453010000000     0.499150000000     0.138140000000     0.0180455  
H32      H      0.454730000000     0.459110000000     0.310500000000     0.0295268  
H33      H      0.427590000000     0.544850000000     0.183910000000     0.0782295  
H34      H      0.452820000000     0.569940000000     0.148540000000     0.0882319  
H35      H      0.427990000000     0.781290000000     0.507220000000     0.0435145  
H36      H      0.543000000000     0.690920000000     0.439830000000     0.0320382  
H37      H      0.544390000000     0.817590000000     0.526320000000     0.0293581  
H38      H      0.548340000000     0.785960000000     0.460600000000     0.0450204  
H39      H      0.552470000000     0.734190000000     0.496660000000     0.0464634  
H40      H      0.427950000000     0.729730000000     0.463350000000     0.0523209  
H41      H      0.436000000000     0.850110000000     0.532000000000     0.0391616  
H42      H      0.557890000000     0.662570000000     0.481810000000     0.0373611  
H43      H      0.512660000000     0.818890000000     0.441670000000     0.0559349  
H44      H      0.442440000000     0.701980000000     0.506190000000     0.0572181  
H45      H      0.555270000000     0.853320000000     0.488940000000     0.0398717  
H46      H      0.438570000000     0.815670000000     0.468100000000     0.0516998  
H47      H      0.520530000000     0.705280000000     0.526160000000     0.0567943  
H48      H      0.435320000000     0.657220000000     0.450600000000     0.0148543  
H49      H      0.469920000000     0.815650000000     0.553730000000     0.0325453  
H50      H      0.441640000000     0.702670000000     0.398200000000     0.079198   
H51      H      0.475310000000     0.666170000000     0.391530000000     0.0912266  
H52      H      0.436930000000     0.229510000000     0.496590000000     0.0433579  
H53      H      0.553760000000     0.336020000000     0.538520000000     0.0324015  
H54      H      0.552330000000     0.178490000000     0.490320000000     0.030094   
H55      H      0.559620000000     0.232850000000     0.535650000000     0.0440967  
H56      H      0.561510000000     0.280560000000     0.494850000000     0.045886   
H57      H      0.436930000000     0.287880000000     0.527070000000     0.0524862  
H58      H      0.439970000000     0.157560000000     0.494780000000     0.0395383  
H59      H      0.562580000000     0.354540000000     0.489900000000     0.0384111  
H60      H      0.524140000000     0.213420000000     0.568620000000     0.05341    
H61      H      0.451250000000     0.307400000000     0.479820000000     0.0579539  
H62      H      0.558390000000     0.158810000000     0.538950000000     0.040009   
H63      H      0.447830000000     0.209440000000     0.544760000000     0.0514469  
H64      H      0.528410000000     0.300300000000     0.459640000000     0.053906   
H65      H      0.442190000000     0.359950000000     0.527800000000     0.0168998  
H66      H      0.475640000000     0.180420000000     0.462960000000     0.0331347  
H67      H      0.452320000000     0.324320000000     0.586760000000     0.0794163  
H68      H      0.484190000000     0.362950000000     0.586210000000     0.0923174  
H69      H      0.451660000000     0.796970000000     0.022760000000     0.0436178  
H70      H      0.579860000000     0.703100000000     0.981570000000     0.0328852  
H71      H      0.560750000000     0.855550000000     0.045940000000     0.0306462  
H72      H      0.577890000000     0.804610000000     0.999890000000     0.0445014  
H73      H      0.578010000000     0.751550000000     0.033360000000     0.046084   
H74      H      0.458370000000     0.742950000000     0.985740000000     0.0527547  
H75      H      0.448760000000     0.868800000000     0.028480000000     0.0397694  
H76      H      0.583090000000     0.677390000000     0.027530000000     0.0385869  
H77      H      0.545990000000     0.823310000000     0.962950000000     0.053951   
H78      H      0.469420000000     0.716550000000     0.030400000000     0.058131   
H79      H      0.571380000000     0.878390000000     0.999560000000     0.0406996  
H80      H      0.466130000000     0.820740000000     0.977250000000     0.0519016  
H81      H      0.542540000000     0.724880000000     0.060730000000     0.0534865  
H82      H      0.469200000000     0.673170000000     0.973040000000     0.0173551  
H83      H      0.482150000000     0.846600000000     0.063160000000     0.0333356  
H84      H      0.483890000000     0.719210000000     0.922960000000     0.0799354  
H85      H      0.517950000000     0.682550000000     0.920960000000     0.0929092  
H86      H      0.575230000000     0.241510000000     0.043320000000     0.0436241  
H87      H      0.477230000000     0.341350000000     0.965750000000     0.0319098  
H88      H      0.455310000000     0.212070000000     0.049150000000     0.0295492  
H89      H      0.458800000000     0.251620000000     0.988480000000     0.0448363  
H90      H      0.458760000000     0.303230000000     0.024570000000     0.0461692  
H91      H      0.585500000000     0.293440000000     0.002200000000     0.0526916  
H92      H      0.560260000000     0.172310000000     0.060770000000     0.0407404  
H93      H      0.461750000000     0.373420000000     0.004640000000     0.0379532  
H94      H      0.493100000000     0.218590000000     0.967310000000     0.0558744  
H95      H      0.569480000000     0.324430000000     0.042070000000     0.0569021  
H96      H      0.445590000000     0.181680000000     0.006970000000     0.0402461  
H97      H      0.565860000000     0.211960000000     0.000030000000     0.0523765  
H98      H      0.491710000000     0.330600000000     0.054330000000     0.0556771  
H99      H      0.586630000000     0.365840000000     0.986180000000     0.0150106  
H100     H      0.526260000000     0.206930000000     0.081990000000     0.0318587  
H101     H      0.582230000000     0.318550000000     0.935200000000     0.0795612  
H102     H      0.553130000000     0.357480000000     0.923050000000     0.0928313  
H103     H      0.560240000000     0.039280000000     0.743260000000     0.045131   
H104     H      0.476730000000     0.082630000000     0.839040000000     0.0353679  
H105     H      0.479570000000     0.955270000000     0.703960000000     0.0327272  
H106     H      0.438170000000     0.997870000000     0.743750000000     0.04351    
H107     H      0.437880000000     0.041170000000     0.796150000000     0.0460589  
H108     H      0.560830000000     0.002690000000     0.794950000000     0.0529977  
H109     H      0.563480000000     0.024010000000     0.670850000000     0.0397264  
H110     H      0.443100000000     0.053790000000     0.868120000000     0.0374035  
H111     H      0.449310000000     0.040540000000     0.713970000000     0.0522132  
H112     H      0.526620000000     0.974620000000     0.822290000000     0.0596175  
H113     H      0.444440000000     0.980490000000     0.673270000000     0.0402422  
H114     H      0.525360000000     0.065770000000     0.714860000000     0.0550181  
H115     H      0.449830000000     0.997110000000     0.823520000000     0.0527246  
H116     H      0.563160000000     0.014170000000     0.868100000000     0.0177851  
H117     H      0.554360000000     0.981560000000     0.700900000000     0.0293708  
H118     H      0.585480000000     0.063650000000     0.824780000000     0.0779782  
H119     H      0.562060000000     0.085570000000     0.863360000000     0.0881726  
H120     H      0.545960000000     0.985150000000     0.292490000000     0.0460976  
H121     H      0.467400000000     0.956240000000     0.194050000000     0.0353522  
H122     H      0.455650000000     0.054880000000     0.344050000000     0.0329187  
H123     H      0.419950000000     0.012510000000     0.299270000000     0.04409    
H124     H      0.423610000000     0.990680000000     0.238320000000     0.0455751  
H125     H      0.543850000000     0.035320000000     0.253300000000     0.053132   
H126     H      0.550150000000     0.994070000000     0.365590000000     0.0400736  
H127     H      0.434370000000     0.987140000000     0.166570000000     0.0382916  
H128     H      0.437930000000     0.968270000000     0.322470000000     0.0521059  
H129     H      0.509210000000     0.063550000000     0.226850000000     0.0592754  
H130     H      0.426400000000     0.020300000000     0.371570000000     0.0390311  
H131     H      0.514120000000     0.953260000000     0.318710000000     0.05494    
H132     H      0.435940000000     0.038200000000     0.217960000000     0.053124   
H133     H      0.551650000000     0.032660000000     0.179500000000     0.0179948  
H134     H      0.535030000000     0.038180000000     0.340870000000     0.0295841  
H135     H      0.575070000000     0.979840000000     0.217950000000     0.0777578  
H136     H      0.555650000000     0.961230000000     0.175580000000     0.0885745  
H137     H      0.719610000000     0.563310000000     0.552330000000     0.0431965  
H138     H      0.818870000000     0.449050000000     0.510450000000     0.0336854  
H139     H      0.685880000000     0.507860000000     0.448770000000     0.0310925  
H140     H      0.725080000000     0.454370000000     0.481720000000     0.0443283  
H141     H      0.776060000000     0.478420000000     0.458260000000     0.0459126  
H142     H      0.778300000000     0.549780000000     0.567050000000     0.0523141  
H143     H      0.648230000000     0.566090000000     0.539500000000     0.0411882  
H144     H      0.845870000000     0.464520000000     0.467660000000     0.039229   
H145     H      0.694710000000     0.457450000000     0.523560000000     0.0543001  
H146     H      0.802110000000     0.567840000000     0.523520000000     0.0567564  
H147     H      0.656840000000     0.465680000000     0.462000000000     0.0409896  
H148     H      0.694450000000     0.519880000000     0.569100000000     0.0518657  
H149     H      0.803090000000     0.522550000000     0.460030000000     0.0546576  
H150     H      0.850750000000     0.542070000000     0.568210000000     0.0183822  
H151     H      0.678420000000     0.572230000000     0.496640000000     0.0312519  
H152     H      0.810440000000     0.502340000000     0.608060000000     0.0788684  
H153     H      0.847770000000     0.473860000000     0.590680000000     0.0895991  
H154     H      0.226030000000     0.569380000000     0.463560000000     0.0439779  
H155     H      0.319880000000     0.508450000000     0.549730000000     0.034436   
H156     H      0.180750000000     0.457730000000     0.504970000000     0.0317351  
H157     H      0.226390000000     0.480740000000     0.558310000000     0.0440385  
H158     H      0.274020000000     0.453450000000     0.532620000000     0.0452167  
H159     H      0.271000000000     0.539230000000     0.435290000000     0.0519233  
H160     H      0.153560000000     0.561060000000     0.458620000000     0.040785   
H161     H      0.345430000000     0.463740000000     0.538000000000     0.0389488  
H162     H      0.202010000000     0.526210000000     0.560550000000     0.0529887  
H163     H      0.295340000000     0.493900000000     0.433950000000     0.0569702  
H164     H      0.155300000000     0.472250000000     0.549010000000     0.0407188  
H165     H      0.202660000000     0.574870000000     0.509380000000     0.0525377  
H166     H      0.297150000000     0.447210000000     0.486770000000     0.052527   
H167     H      0.343570000000     0.545510000000     0.441520000000     0.018305   
H168     H      0.178710000000     0.517090000000     0.443810000000     0.0316986  
H169     H      0.304000000000     0.594090000000     0.471690000000     0.0781723  
H170     H      0.344170000000     0.586100000000     0.500580000000     0.090339   
H171     H      0.749960000000     0.520230000000     0.067430000000     0.0434608  
H172     H      0.848830000000     0.456980000000     0.956710000000     0.0323381  
H173     H      0.712960000000     0.540400000000     0.950680000000     0.0298735  
H174     H      0.753480000000     0.480940000000     0.944200000000     0.0441879  
H175     H      0.806420000000     0.514010000000     0.945230000000     0.046038   
H176     H      0.802630000000     0.479520000000     0.069930000000     0.0524301  
H177     H      0.679200000000     0.536250000000     0.059310000000     0.0398363  
H178     H      0.877830000000     0.499180000000     0.944430000000     0.0384374  
H179     H      0.723320000000     0.454930000000     0.977810000000     0.0544312  
H180     H      0.830810000000     0.522450000000     0.057180000000     0.0571584  
H181     H      0.682930000000     0.499000000000     0.937800000000     0.0394532  
H182     H      0.721140000000     0.477560000000     0.054370000000     0.0514551  
H183     H      0.832890000000     0.542730000000     0.979790000000     0.0555195  
H184     H      0.875190000000     0.467410000000     0.067310000000     0.0162653  
H185     H      0.710990000000     0.563780000000     0.027100000000     0.0325033  
H186     H      0.830600000000     0.414880000000     0.058470000000     0.0793685  
H187     H      0.869140000000     0.408070000000     0.027170000000     0.0920641  
H188     H      0.305630000000     0.455730000000     0.999230000000     0.0451424  
H189     H      0.211250000000     0.535370000000     0.046730000000     0.0347711  
H190     H      0.347830000000     0.544500000000     0.922390000000     0.0315562  
H191     H      0.299760000000     0.578980000000     0.961340000000     0.0433438  
H192     H      0.245100000000     0.576300000000     0.999340000000     0.0456663  
H193     H      0.255060000000     0.452720000000     0.962360000000     0.0522533  
H194     H      0.377360000000     0.456740000000     0.987300000000     0.0393689  
H195     H      0.176020000000     0.563790000000     0.019390000000     0.0385248  
H196     H      0.325180000000     0.569260000000     0.007100000000     0.0513697  
H197     H      0.220810000000     0.483890000000     0.939070000000     0.0585164  
H198     H      0.373000000000     0.579060000000     0.953810000000     0.0382943  
H199     H      0.329530000000     0.491340000000     0.028950000000     0.0559501  
H200     H      0.215380000000     0.559110000000     0.958810000000     0.052239   
H201     H      0.186080000000     0.442150000000     0.985040000000     0.0180331  
H202     H      0.350080000000     0.469010000000     0.943760000000     0.0289351  
H203     H      0.237500000000     0.427750000000     0.029300000000     0.0777977  
H204     H      0.199430000000     0.447330000000     0.055370000000     0.0877586  
H205     H      0.063850000000     0.438220000000     0.720210000000     0.0431758  
H206     H      0.026900000000     0.545940000000     0.825070000000     0.0334979  
H207     H      0.960720000000     0.498550000000     0.693450000000     0.0305324  
H208     H      0.995750000000     0.547480000000     0.736810000000     0.0439613  
H209     H      0.971080000000     0.518170000000     0.784770000000     0.0458606  
H210     H      0.077150000000     0.443490000000     0.780430000000     0.0522588  
H211     H      0.049060000000     0.441550000000     0.649130000000     0.041066   
H212     H      0.985060000000     0.531790000000     0.854030000000     0.0392855  
H213     H      0.036710000000     0.546100000000     0.705260000000     0.0541694  
H214     H      0.033950000000     0.427340000000     0.805600000000     0.0565311  
H215     H      0.974640000000     0.542730000000     0.667750000000     0.0401697  
H216     H      0.080450000000     0.483470000000     0.698460000000     0.052221   
H217     H      0.974070000000     0.473840000000     0.811350000000     0.054513   
H218     H      0.081110000000     0.449220000000     0.853670000000     0.0181709  
H219     H      0.006910000000     0.433930000000     0.679820000000     0.0308932  
H220     H      0.122150000000     0.487120000000     0.812680000000     0.0786546  
H221     H      0.108070000000     0.515740000000     0.851380000000     0.0898325  
H222     H      0.038680000000     0.572190000000     0.282030000000     0.0429127  
H223     H      0.035760000000     0.435960000000     0.195750000000     0.0331649  
H224     H      0.935450000000     0.536860000000     0.322490000000     0.0290639  
H225     H      0.949440000000     0.485120000000     0.279260000000     0.043112   
H226     H      0.980710000000     0.453130000000     0.233570000000     0.0453586  
H227     H      0.069350000000     0.543820000000     0.234300000000     0.0524632  
H228     H      0.031400000000     0.578750000000     0.355500000000     0.0402418  
H229     H      0.994310000000     0.439790000000     0.163520000000     0.0384075  
H230     H      0.988570000000     0.465190000000     0.309240000000     0.0534755  
H231     H      0.029600000000     0.557760000000     0.202570000000     0.0574147  
H232     H      0.938570000000     0.492720000000     0.351380000000     0.0402355  
H233     H      0.057330000000     0.531260000000     0.310340000000     0.0530329  
H234     H      0.966060000000     0.492950000000     0.201590000000     0.0537552  
H235     H      0.080530000000     0.532590000000     0.162110000000     0.0183022  
H236     H      0.988550000000     0.587170000000     0.325910000000     0.0289503  
H237     H      0.119160000000     0.501290000000     0.210150000000     0.0788502  
H238     H      0.109550000000     0.467890000000     0.174010000000     0.0883045  
H239     H      0.969710000000     0.790270000000     0.589180000000     0.0431631  
H240     H      0.000150000000     0.696930000000     0.469600000000     0.0338899  
H241     H      0.058210000000     0.831580000000     0.515450000000     0.0309707  
H242     H      0.023950000000     0.783570000000     0.471300000000     0.0446444  
H243     H      0.056570000000     0.737380000000     0.495600000000     0.0458078  
H244     H      0.961220000000     0.729440000000     0.583470000000     0.052325   
H245     H      0.973210000000     0.862610000000     0.585080000000     0.0412705  
H246     H      0.043840000000     0.668380000000     0.477530000000     0.0394436  
H247     H      0.979140000000     0.808600000000     0.478100000000     0.054572   
H248     H      0.006720000000     0.704220000000     0.589800000000     0.0571192  
H249     H      0.034700000000     0.854840000000     0.474080000000     0.0411069  
H250     H      0.943530000000     0.809360000000     0.547230000000     0.0522366  
H251     H      0.059630000000     0.706580000000     0.537140000000     0.0541064  
H252     H      0.956890000000     0.658090000000     0.569170000000     0.0182932  
H253     H      0.019970000000     0.838390000000     0.586370000000     0.0315307  
H254     H      0.911510000000     0.702180000000     0.540780000000     0.0789388  
H255     H      0.922250000000     0.666880000000     0.506810000000     0.0905627  
H256     H      0.060640000000     0.234980000000     0.509910000000     0.0441009  
H257     H      0.006720000000     0.336870000000     0.424920000000     0.0339385  
H258     H      0.939730000000     0.194550000000     0.510180000000     0.0307653  
H259     H      0.945850000000     0.229970000000     0.449370000000     0.0436016  
H260     H      0.957400000000     0.289550000000     0.436140000000     0.0456099  
H261     H      0.037960000000     0.284620000000     0.537880000000     0.0525061  
H262     H      0.047510000000     0.169110000000     0.537020000000     0.0407833  
H263     H      0.962540000000     0.362450000000     0.437660000000     0.0392682  
H264     H      0.986680000000     0.201060000000     0.432730000000     0.0525588  
H265     H      0.994060000000     0.311560000000     0.540920000000     0.0593209  
H266     H      0.939900000000     0.160560000000     0.469800000000     0.0414479  
H267     H      0.051310000000     0.201400000000     0.471670000000     0.0541097  
H268     H      0.941730000000     0.310540000000     0.482330000000     0.0526521  
H269     H      0.050130000000     0.354830000000     0.529340000000     0.0183068  
H270     H      0.008310000000     0.201590000000     0.551480000000     0.0309497  
H271     H      0.091120000000     0.311640000000     0.493360000000     0.0784797  
H272     H      0.083070000000     0.352770000000     0.465730000000     0.0893159  
H273     H      0.768670000000     0.059120000000     0.504790000000     0.0458236  
H274     H      0.678560000000     0.975360000000     0.466740000000     0.0349729  
H275     H      0.821480000000     0.974220000000     0.579080000000     0.0319283  
H276     H      0.777540000000     0.934920000000     0.539310000000     0.0436958  
H277     H      0.719430000000     0.934510000000     0.508520000000     0.0458923  
H278     H      0.724420000000     0.056860000000     0.550200000000     0.0526263  
H279     H      0.841170000000     0.065250000000     0.513530000000     0.0397575  
H280     H      0.648350000000     0.942610000000     0.495340000000     0.0379263  
H281     H      0.800740000000     0.949730000000     0.493730000000     0.052243   
H282     H      0.695400000000     0.022220000000     0.575800000000     0.059071   
H283     H      0.849680000000     0.943060000000     0.546730000000     0.0390178  
H284     H      0.795340000000     0.026560000000     0.473930000000     0.0554328  
H285     H      0.692640000000     0.947780000000     0.552500000000     0.0528567  
H286     H      0.652040000000     0.062340000000     0.536710000000     0.0177245  
H287     H      0.816690000000     0.051260000000     0.558210000000     0.0290917  
H288     H      0.696490000000     0.084400000000     0.488310000000     0.0774252  
H289     H      0.657800000000     0.062620000000     0.465090000000     0.088147   
H290     H      0.222790000000     0.066220000000     0.537640000000     0.0450605  
H291     H      0.314800000000     0.980180000000     0.580970000000     0.0344453  
H292     H      0.179200000000     0.981580000000     0.457710000000     0.0312114  
H293     H      0.217710000000     0.941780000000     0.502460000000     0.0435283  
H294     H      0.272410000000     0.941440000000     0.539300000000     0.0458503  
H295     H      0.272090000000     0.064310000000     0.498790000000     0.0526667  
H296     H      0.152300000000     0.072850000000     0.518940000000     0.039762   
H297     H      0.343900000000     0.946590000000     0.552220000000     0.038188   
H298     H      0.189340000000     0.956850000000     0.544870000000     0.0523193  
H299     H      0.300140000000     0.029340000000     0.472620000000     0.0597457  
H300     H      0.147340000000     0.950110000000     0.486030000000     0.040117   
H301     H      0.192270000000     0.033840000000     0.564730000000     0.0554575  
H302     H      0.299810000000     0.953250000000     0.495210000000     0.0526761  
H303     H      0.343860000000     0.067520000000     0.513650000000     0.0176876  
H304     H      0.182000000000     0.057420000000     0.478020000000     0.0290383  
H305     H      0.299040000000     0.088350000000     0.562430000000     0.0775973  
H306     H      0.337310000000     0.065190000000     0.585040000000     0.0875024  
H307     H      0.981390000000     0.714310000000     0.953520000000     0.0451892  
H308     H      0.941290000000     0.811500000000     0.034940000000     0.0349511  
H309     H      0.058700000000     0.672500000000     0.041380000000     0.0328716  
H310     H      0.012590000000     0.711530000000     0.079190000000     0.0436551  
H311     H      0.978210000000     0.767350000000     0.076580000000     0.046132   
H312     H      0.022320000000     0.762490000000     0.955080000000     0.0529042  
H313     H      0.996240000000     0.641910000000     0.950180000000     0.0397656  
H314     H      0.969740000000     0.838880000000     0.070250000000     0.0383307  
H315     H      0.970970000000     0.682970000000     0.062740000000     0.0518098  
H316     H      0.050250000000     0.787990000000     0.990770000000     0.058482   
H317     H      0.029410000000     0.641360000000     0.072720000000     0.0391006  
H318     H      0.952730000000     0.685550000000     0.986270000000     0.0540092  
H319     H      0.024330000000     0.791670000000     0.066110000000     0.0532849  
H320     H      0.016420000000     0.836380000000     0.952310000000     0.0180295  
H321     H      0.038330000000     0.671270000000     0.962210000000     0.0297846  
H322     H      0.965800000000     0.796670000000     0.926310000000     0.0782466  
H323     H      0.945020000000     0.836560000000     0.948440000000     0.0886587  
H324     H      0.002880000000     0.264650000000     0.068610000000     0.0449354  
H325     H      0.957930000000     0.171900000000     0.984710000000     0.0352042  
H326     H      0.081590000000     0.308800000000     0.984090000000     0.0321264  
H327     H      0.041330000000     0.264970000000     0.945220000000     0.0435322  
H328     H      0.002160000000     0.211120000000     0.945130000000     0.0459218  
H329     H      0.039820000000     0.213670000000     0.068970000000     0.0526533  
H330     H      0.013330000000     0.337440000000     0.070510000000     0.0397445  
H331     H      0.985750000000     0.140690000000     0.952210000000     0.0382195  
H332     H      0.996690000000     0.291440000000     0.956680000000     0.0516614  
H333     H      0.065870000000     0.184080000000     0.035120000000     0.0589005  
H334     H      0.052580000000     0.336820000000     0.949660000000     0.0391667  
H335     H      0.973640000000     0.290460000000     0.033890000000     0.054076   
H336     H      0.044500000000     0.182260000000     0.959080000000     0.0527444  
H337     H      0.024110000000     0.141560000000     0.073160000000     0.0178063  
H338     H      0.057410000000     0.310400000000     0.060360000000     0.029589   
H339     H      0.977040000000     0.187940000000     0.094360000000     0.0777512  
H340     H      0.953140000000     0.150010000000     0.071920000000     0.0879806  
H341     H      0.725970000000     0.034320000000     0.087040000000     0.0432005  
H342     H      0.812430000000     0.982440000000     0.963200000000     0.031628   
H343     H      0.681350000000     0.065580000000     0.975930000000     0.0288285  
H344     H      0.726110000000     0.011760000000     0.959690000000     0.0445484  
H345     H      0.778150000000     0.046470000000     0.964090000000     0.0457794  
H346     H      0.778650000000     0.995120000000     0.083310000000     0.0518624  
H347     H      0.654180000000     0.045970000000     0.084200000000     0.0392179  
H348     H      0.846620000000     0.021610000000     0.954610000000     0.0380972  
H349     H      0.699920000000     0.978460000000     0.990180000000     0.0553022  
H350     H      0.811780000000     0.034740000000     0.072220000000     0.057121   
H351     H      0.653930000000     0.023830000000     0.958890000000     0.0394603  
H352     H      0.699440000000     0.991300000000     0.070360000000     0.0514013  
H353     H      0.811130000000     0.064840000000     0.999990000000     0.0550764  
H354     H      0.846840000000     0.972220000000     0.071820000000     0.0172871  
H355     H      0.682230000000     0.079050000000     0.053700000000     0.0313618  
H356     H      0.793820000000     0.929090000000     0.059490000000     0.0793678  
H357     H      0.828870000000     0.921250000000     0.024480000000     0.0910606  
H358     H      0.274680000000     0.031280000000     0.951380000000     0.0434568  
H359     H      0.181990000000     0.965050000000     0.066370000000     0.031579   
H360     H      0.317230000000     0.046450000000     0.067270000000     0.0294676  
H361     H      0.274860000000     0.988830000000     0.073390000000     0.0444843  
H362     H      0.222450000000     0.023930000000     0.073900000000     0.0459258  
H363     H      0.223350000000     0.986800000000     0.949930000000     0.0525132  
H364     H      0.346260000000     0.046000000000     0.957320000000     0.0383003  
H365     H      0.151130000000     0.006290000000     0.077400000000     0.0376915  
H366     H      0.302920000000     0.962260000000     0.038230000000     0.0552426  
H367     H      0.192810000000     0.027950000000     0.963170000000     0.0576272  
H368     H      0.346630000000     0.003800000000     0.077120000000     0.039569   
H369     H      0.303410000000     0.987760000000     0.961680000000     0.0513455  
H370     H      0.193230000000     0.050460000000     0.039730000000     0.0551944  
H371     H      0.152330000000     0.969200000000     0.955990000000     0.0160812  
H372     H      0.316150000000     0.072690000000     0.991920000000     0.032428   
H373     H      0.200930000000     0.920420000000     0.965520000000     0.0794633  
H374     H      0.163850000000     0.912220000000     0.998260000000     0.091798   
H375     H      0.954180000000     0.041660000000     0.790470000000     0.0455518  
H376     H      0.038520000000     0.074510000000     0.693170000000     0.0350693  
H377     H      0.032570000000     0.950180000000     0.825160000000     0.0315648  
H378     H      0.075490000000     0.997130000000     0.792400000000     0.0430376  
H379     H      0.075750000000     0.032270000000     0.736340000000     0.0458204  
H380     H      0.951070000000     0.999640000000     0.742890000000     0.0526564  
H381     H      0.944220000000     0.013580000000     0.857750000000     0.0396186  
H382     H      0.068480000000     0.042210000000     0.663770000000     0.0375391  
H383     H      0.061850000000     0.036320000000     0.825460000000     0.0517642  
H384     H      0.983050000000     0.970350000000     0.714250000000     0.0598864  
H385     H      0.064490000000     0.972970000000     0.860820000000     0.0394664  
H386     H      0.988180000000     0.060950000000     0.824960000000     0.0552274  
H387     H      0.060470000000     0.988060000000     0.711010000000     0.0525373  
H388     H      0.945650000000     0.012350000000     0.670670000000     0.0179931  
H389     H      0.957630000000     0.976020000000     0.823080000000     0.0283092  
H390     H      0.930120000000     0.063680000000     0.714760000000     0.0779657  
H391     H      0.952990000000     0.083420000000     0.674660000000     0.0880484  
H392     H      0.046140000000     0.981830000000     0.290040000000     0.0456966  
H393     H      0.966610000000     0.940160000000     0.196020000000     0.0348184  
H394     H      0.956350000000     0.054350000000     0.338160000000     0.0326938  
H395     H      0.921010000000     0.012850000000     0.292800000000     0.0438772  
H396     H      0.923730000000     0.981360000000     0.235210000000     0.0456689  
H397     H      0.045000000000     0.024960000000     0.243710000000     0.05264    
H398     H      0.048690000000     0.991790000000     0.362750000000     0.040328   
H399     H      0.934170000000     0.967700000000     0.164550000000     0.0379101  
H400     H      0.936110000000     0.968130000000     0.317310000000     0.0519638  
H401     H      0.010900000000     0.049890000000     0.213540000000     0.0584015  
H402     H      0.925590000000     0.020990000000     0.365530000000     0.0389576  
H403     H      0.013190000000     0.950700000000     0.315830000000     0.0551554  
H404     H      0.937040000000     0.025300000000     0.208440000000     0.052533   
H405     H      0.052660000000     0.011570000000     0.171170000000     0.0178753  
H406     H      0.034980000000     0.035680000000     0.336870000000     0.0299445  
H407     H      0.074530000000     0.963990000000     0.216770000000     0.0776351  
H408     H      0.054630000000     0.940230000000     0.177300000000     0.0881845  
N1       N      0.539280000000     0.526750000000     0.842420000000    -0.176598   
N2       N      0.493620000000     0.526990000000     0.639620000000    -0.165154   
N3       N      0.593250000000     0.498510000000     0.806290000000    -0.195363   
N4       N      0.511900000000     0.522530000000     0.140040000000    -0.175412   
N5       N      0.500650000000     0.484770000000     0.343720000000    -0.164761   
N6       N      0.455580000000     0.550580000000     0.172410000000    -0.195171   
N7       N      0.497050000000     0.656670000000     0.464260000000    -0.177336   
N8       N      0.496320000000     0.854830000000     0.512960000000    -0.165665   
N9       N      0.467610000000     0.690270000000     0.409170000000    -0.195257   
N10      N      0.503520000000     0.361540000000     0.512180000000    -0.176722   
N11      N      0.500330000000     0.153900000000     0.513810000000    -0.165296   
N12      N      0.477300000000     0.335960000000     0.572990000000    -0.195378   
N13      N      0.528260000000     0.671640000000     0.996070000000    -0.176423   
N14      N      0.510400000000     0.877790000000     0.017100000000    -0.164331   
N15      N      0.507770000000     0.706400000000     0.937630000000    -0.195285   
N16      N      0.524200000000     0.372780000000     0.992070000000    -0.177188   
N17      N      0.502000000000     0.173390000000     0.035210000000    -0.16479    
N18      N      0.556440000000     0.333740000000     0.942460000000    -0.195408   
N19      N      0.504090000000     0.036840000000     0.871510000000    -0.176477   
N20      N      0.504620000000     0.000140000000     0.668530000000    -0.164772   
N21      N      0.558130000000     0.068080000000     0.838230000000    -0.195333   
N22      N      0.494810000000     0.006570000000     0.169200000000    -0.176926   
N23      N      0.489000000000     0.010390000000     0.372310000000    -0.165605   
N24      N      0.548950000000     0.975220000000     0.202270000000    -0.19543    
N25      N      0.852450000000     0.500950000000     0.519710000000    -0.176073   
N26      N      0.648560000000     0.517690000000     0.497960000000    -0.165116   
N27      N      0.822260000000     0.489180000000     0.582760000000    -0.195015   
N28      N      0.348730000000     0.509990000000     0.494140000000    -0.176327   
N29      N      0.150210000000     0.512010000000     0.499260000000    -0.165166   
N30      N      0.317900000000     0.573780000000     0.490280000000    -0.194592   
N31      N      0.880090000000     0.480320000000     0.005420000000    -0.176038   
N32      N      0.677430000000     0.520220000000     0.997730000000    -0.164781   
N33      N      0.844590000000     0.425660000000     0.033160000000    -0.195327   
N34      N      0.177920000000     0.501570000000     0.006080000000    -0.175864   
N35      N      0.378840000000     0.517900000000     0.969480000000    -0.166029   
N36      N      0.221360000000     0.453470000000     0.034590000000    -0.195189   
N37      N      0.035900000000     0.493420000000     0.857960000000    -0.176269   
N38      N      0.008840000000     0.490730000000     0.654390000000    -0.165189   
N39      N      0.098310000000     0.501660000000     0.825720000000    -0.194931   
N40      N      0.037510000000     0.486290000000     0.158950000000    -0.176675   
N41      N      0.986750000000     0.533650000000     0.357400000000    -0.165426   
N42      N      0.097090000000     0.484270000000     0.197000000000    -0.195389   
N43      N      0.996770000000     0.659480000000     0.519710000000    -0.175819   
N44      N      0.006640000000     0.863160000000     0.530750000000    -0.164708   
N45      N      0.933510000000     0.691070000000     0.522260000000    -0.194842   
N46      N      0.008730000000     0.362820000000     0.481590000000    -0.176483   
N47      N      0.992110000000     0.161180000000     0.506510000000    -0.165496   
N48      N      0.069990000000     0.327430000000     0.477400000000    -0.194992   
N49      N      0.646830000000     0.003860000000     0.512450000000    -0.177359   
N50      N      0.849070000000     0.004860000000     0.532230000000    -0.166263   
N51      N      0.682370000000     0.057520000000     0.482960000000    -0.195321   
N52      N      0.347390000000     0.007890000000     0.535410000000    -0.177496   
N53      N      0.146190000000     0.011960000000     0.501100000000    -0.166288   
N54      N      0.312800000000     0.061120000000     0.566810000000    -0.19532    
N55      N      0.990010000000     0.841400000000     0.009860000000    -0.176464   
N56      N      0.016650000000     0.638340000000     0.010470000000    -0.165844   
N57      N      0.960430000000     0.810360000000     0.953470000000    -0.195242   
N58      N      0.001260000000     0.137760000000     0.013960000000    -0.175643   
N59      N      0.035250000000     0.340830000000     0.010720000000    -0.165356   
N60      N      0.971890000000     0.174010000000     0.067290000000    -0.195364   
N61      N      0.849760000000     0.993680000000     0.011970000000    -0.177549   
N62      N      0.650360000000     0.036340000000     0.021380000000    -0.166632   
N63      N      0.807880000000     0.941270000000     0.034860000000    -0.195128   
N64      N      0.148560000000     0.984530000000     0.017470000000    -0.17673    
N65      N      0.349860000000     0.027140000000     0.017860000000    -0.165924   
N66      N      0.186900000000     0.931240000000     0.990790000000    -0.195303   
N67      N      0.006260000000     0.029880000000     0.663770000000    -0.176399   
N68      N      0.003540000000     0.990880000000     0.862560000000    -0.166464   
N69      N      0.956910000000     0.065770000000     0.699680000000    -0.19537    
N70      N      0.995070000000     0.985950000000     0.164440000000    -0.177169   
N71      N      0.987780000000     0.009460000000     0.367870000000    -0.165404   
N72      N      0.048310000000     0.957970000000     0.201750000000    -0.195199   
O1       O      0.999370000000     0.989480000000     0.013400000000    -0.368439   
O2       O      0.971740000000     0.967810000000     0.104050000000    -0.310727   
O3       O      0.089970000000     0.008570000000     0.040230000000    -0.305165   
O4       O      0.016570000000     0.898940000000     0.986560000000    -0.306024   
O5       O      0.022420000000     0.008360000000     0.106850000000    -0.307831   
O6       O      0.973820000000     0.900980000000     0.036110000000    -0.30916    
O7       O      0.089750000000     0.964470000000     0.991890000000    -0.307681   
O8       O      0.976520000000     0.010590000000     0.921010000000    -0.3079     
O9       O      0.021090000000     0.078730000000     0.040010000000    -0.30489    
O10      O      0.026920000000     0.969530000000     0.921990000000    -0.307702   
O11      O      0.980990000000     0.079100000000     0.988110000000    -0.306243   
O12      O      0.909140000000     0.013970000000     0.987490000000    -0.307163   
O13      O      0.907890000000     0.970370000000     0.035990000000    -0.311214   
O14      O      0.997550000000     0.012080000000     0.516300000000    -0.370423   
O15      O      0.962950000000     0.027470000000     0.427890000000    -0.30486    
O16      O      0.085740000000     0.985300000000     0.489510000000    -0.308226   
O17      O      0.020340000000     0.104630000000     0.530040000000    -0.305631   
O18      O      0.015580000000     0.988770000000     0.425590000000    -0.306007   
O19      O      0.968630000000     0.100080000000     0.490640000000    -0.30633    
O20      O      0.089880000000     0.039650000000     0.525300000000    -0.306945   
O21      O      0.978850000000     0.001870000000     0.609090000000    -0.308362   
O22      O      0.017990000000     0.919770000000     0.495660000000    -0.30534    
O23      O      0.030620000000     0.041100000000     0.601910000000    -0.305594   
O24      O      0.985570000000     0.923520000000     0.552220000000    -0.306693   
O25      O      0.910690000000     0.981920000000     0.545510000000    -0.307979   
O26      O      0.903850000000     0.032560000000     0.504940000000    -0.307495   
O27      O      0.029170000000     0.489780000000     0.008470000000    -0.367616   
O28      O      0.009510000000     0.466830000000     0.100720000000    -0.307583   
O29      O      0.117350000000     0.523660000000     0.025370000000    -0.305987   
O30      O      0.053440000000     0.400000000000     0.984430000000    -0.305818   
O31      O      0.056390000000     0.511910000000     0.099240000000    -0.307458   
O32      O      0.011410000000     0.399150000000     0.034560000000    -0.304809   
O33      O      0.121200000000     0.469110000000     0.989570000000    -0.306228   
O34      O      0.008130000000     0.511470000000     0.916650000000    -0.308712   
O35      O      0.041160000000     0.580970000000     0.035120000000    -0.307978   
O36      O      0.057560000000     0.469240000000     0.917440000000    -0.306786   
O37      O      0.001260000000     0.578570000000     0.983400000000    -0.305021   
O38      O      0.938230000000     0.504100000000     0.981270000000    -0.305588   
O39      O      0.939300000000     0.465170000000     0.033900000000    -0.305798   
O40      O      0.000800000000     0.510540000000     0.505240000000    -0.36665    
O41      O      0.021840000000     0.603400000000     0.491820000000    -0.305926   
O42      O      0.912050000000     0.526120000000     0.538580000000    -0.3077     
O43      O      0.969720000000     0.501190000000     0.414080000000    -0.305657   
O44      O      0.976600000000     0.597850000000     0.538540000000    -0.3073     
O45      O      0.017450000000     0.545490000000     0.416370000000    -0.304985   
O46      O      0.909660000000     0.485380000000     0.487570000000    -0.306233   
O47      O      0.027650000000     0.418770000000     0.513910000000    -0.310033   
O48      O      0.984920000000     0.523670000000     0.600370000000    -0.305839   
O49      O      0.980690000000     0.422950000000     0.468920000000    -0.306453   
O50      O      0.027030000000     0.474840000000     0.591380000000    -0.307505   
O51      O      0.092100000000     0.487680000000     0.522730000000    -0.30815    
O52      O      0.090510000000     0.536530000000     0.479490000000    -0.305331   
O53      O      0.500470000000     0.025880000000     0.020650000000    -0.367876   
O54      O      0.476990000000     0.117530000000     0.006770000000    -0.302712   
O55      O      0.521750000000     0.036500000000     0.115020000000    -0.308068   
O56      O      0.408090000000     0.002320000000     0.040190000000    -0.30711    
O57      O      0.523360000000     0.112150000000     0.052780000000    -0.305114   
O58      O      0.409090000000     0.049350000000     0.995050000000    -0.305782   
O59      O      0.472880000000     0.994240000000     0.106900000000    -0.309941   
O60      O      0.532490000000     0.938600000000     0.997680000000    -0.303092   
O61      O      0.590840000000     0.046220000000     0.050810000000    -0.30829    
O62      O      0.477580000000     0.934220000000     0.033070000000    -0.305319   
O63      O      0.593090000000     0.013760000000     0.994390000000    -0.307572   
O64      O      0.526330000000     0.009900000000     0.929120000000    -0.306702   
O65      O      0.478840000000     0.054680000000     0.931320000000    -0.306305   
O66      O      0.496990000000     0.004480000000     0.520490000000    -0.368599   
O67      O      0.406950000000     0.979320000000     0.547370000000    -0.309776   
O68      O      0.473350000000     0.094490000000     0.498150000000    -0.307882   
O69      O      0.526120000000     0.024740000000     0.609420000000    -0.302801   
O70      O      0.404390000000     0.031730000000     0.508890000000    -0.310626   
O71      O      0.478240000000     0.979990000000     0.610060000000    -0.305181   
O72      O      0.523370000000     0.096030000000     0.540000000000    -0.303857   
O73      O      0.586910000000     0.979510000000     0.494770000000    -0.309724   
O74      O      0.464210000000     0.025050000000     0.433120000000    -0.306412   
O75      O      0.589490000000     0.029190000000     0.536800000000    -0.308865   
O76      O      0.518080000000     0.988200000000     0.428880000000    -0.306196   
O77      O      0.519280000000     0.914750000000     0.493080000000    -0.306821   
O78      O      0.473140000000     0.912330000000     0.539210000000    -0.305428   
O79      O      0.527430000000     0.522130000000     0.991280000000    -0.367142   
O80      O      0.505410000000     0.612980000000     0.973180000000    -0.31178    
O81      O      0.544100000000     0.541120000000     0.083810000000    -0.305252   
O82      O      0.434670000000     0.496810000000     0.000080000000    -0.308368   
O83      O      0.553530000000     0.612340000000     0.017270000000    -0.302135   
O84      O      0.438580000000     0.547220000000     0.958950000000    -0.305425   
O85      O      0.491670000000     0.502440000000     0.078680000000    -0.305239   
O86      O      0.553310000000     0.430470000000     0.972870000000    -0.306662   
O87      O      0.617750000000     0.539470000000     0.022260000000    -0.304442   
O88      O      0.500370000000     0.432530000000     0.011050000000    -0.308302   
O89      O      0.619330000000     0.501010000000     0.969480000000    -0.304783   
O90      O      0.551610000000     0.497000000000     0.901690000000    -0.307525   
O91      O      0.515940000000     0.551740000000     0.900610000000    -0.306064   
O92      O      0.498950000000     0.509820000000     0.491050000000    -0.367376   
O93      O      0.526670000000     0.476230000000     0.405400000000    -0.303587   
O94      O      0.407100000000     0.528050000000     0.465860000000    -0.310143   
O95      O      0.475830000000     0.421930000000     0.521500000000    -0.311255   
O96      O      0.473930000000     0.514200000000     0.398230000000    -0.304092   
O97      O      0.528910000000     0.417540000000     0.483890000000    -0.304142   
O98      O      0.408180000000     0.488760000000     0.517780000000    -0.308321   
O99      O      0.514000000000     0.548720000000     0.578780000000    -0.303594   
O100     O      0.472800000000     0.594850000000     0.453630000000    -0.307526   
O101     O      0.477790000000     0.494560000000     0.582850000000    -0.3082     
O102     O      0.520550000000     0.603220000000     0.497490000000    -0.306898   
O103     O      0.587450000000     0.539340000000     0.516360000000    -0.305318   
O104     O      0.592020000000     0.489130000000     0.475010000000    -0.305885   
Zn1      Zn     0.964500000000     0.958230000000     0.046360000000     0.45409    
Zn2      Zn     0.032320000000     0.020620000000     0.049180000000     0.4455     
Zn3      Zn     0.032280000000     0.956310000000     0.979630000000     0.447543   
Zn4      Zn     0.967350000000     0.022190000000     0.978490000000     0.449346   
Zn5      Zn     0.959100000000     0.041830000000     0.485760000000     0.450505   
Zn6      Zn     0.027720000000     0.977070000000     0.482580000000     0.451186   
Zn7      Zn     0.033830000000     0.048140000000     0.542640000000     0.449788   
Zn8      Zn     0.969140000000     0.980510000000     0.554550000000     0.450889   
Zn9      Zn     0.997750000000     0.456530000000     0.043440000000     0.446355   
Zn10     Zn     0.060060000000     0.525460000000     0.041170000000     0.449651   
Zn11     Zn     0.064260000000     0.457730000000     0.975910000000     0.446692   
Zn12     Zn     0.995000000000     0.520060000000     0.973580000000     0.449452   
Zn13     Zn     0.032210000000     0.547620000000     0.474130000000     0.447725   
Zn14     Zn     0.969700000000     0.539040000000     0.544590000000     0.446766   
Zn15     Zn     0.966190000000     0.480790000000     0.469930000000     0.447821   
Zn16     Zn     0.035570000000     0.474150000000     0.532700000000     0.452465   
Zn17     Zn     0.467190000000     0.061040000000     0.989360000000     0.446996   
Zn18     Zn     0.532880000000     0.054000000000     0.059120000000     0.450269   
Zn19     Zn     0.465390000000     0.990210000000     0.048540000000     0.451503   
Zn20     Zn     0.536790000000     0.997330000000     0.986340000000     0.447336   
Zn21     Zn     0.464910000000     0.969690000000     0.553100000000     0.449943   
Zn22     Zn     0.460460000000     0.037450000000     0.491130000000     0.4522     
Zn23     Zn     0.532670000000     0.037940000000     0.551250000000     0.446397   
Zn24     Zn     0.529210000000     0.972630000000     0.485280000000     0.451413   
Zn25     Zn     0.497470000000     0.557310000000     0.957150000000     0.449814   
Zn26     Zn     0.560020000000     0.553030000000     0.027610000000     0.444346   
Zn27     Zn     0.489710000000     0.489860000000     0.020020000000     0.45022    
Zn28     Zn     0.561850000000     0.488310000000     0.959840000000     0.445465   
Zn29     Zn     0.535670000000     0.474080000000     0.464540000000     0.446159   
Zn30     Zn     0.464230000000     0.535870000000     0.453100000000     0.447932   
Zn31     Zn     0.466070000000     0.479640000000     0.526830000000     0.452517   
Zn32     Zn     0.529030000000     0.549200000000     0.520520000000     0.44718    


