data_structure

_audit_creation_method RASPA-1.0
_audit_creation_date 2023-5-25
_audit_author_name 'Poobodin Mano'

_cell_length_a    34.009
_cell_length_b    33.9202
_cell_length_c    33.9456
_cell_angle_alpha 90
_cell_angle_beta  90
_cell_angle_gamma 90
_cell_volume      39159.4

_symmetry_cell_setting          triclinic
_symmetry_space_group_name_Hall 'P 1'
_symmetry_space_group_name_H-M  'P 1'
_symmetry_Int_Tables_number     1

_symmetry_equiv_pos_as_xyz 'x,y,z'

loop_
_atom_site_label
_atom_site_type_symbol
_atom_site_fract_x
_atom_site_fract_y
_atom_site_fract_z
_atom_site_charge
C1       C      0.995330000000     0.016940000000     0.134930000000     0.361603   
C2       C      0.107900000000     0.007430000000     0.030120000000     0.362686   
C3       C      0.998330000000     0.898320000000     0.032370000000     0.364167   
C4       C      0.998320000000     0.996610000000     0.917870000000     0.366614   
C5       C      0.000560000000     0.116200000000     0.012080000000     0.364245   
C6       C      0.889210000000     0.010700000000     0.028140000000     0.364348   
C7       C      0.019070000000     0.911750000000     0.534990000000     0.36337    
C8       C      0.025040000000     0.021070000000     0.419710000000     0.360965   
C9       C      0.908830000000     0.017060000000     0.517530000000     0.363585   
C10      C      0.015040000000     0.129850000000     0.531610000000     0.36284    
C11      C      0.127710000000     0.020250000000     0.530930000000     0.364823   
C12      C      0.010950000000     0.025580000000     0.636190000000     0.364612   
C13      C      0.992410000000     0.520380000000     0.882610000000     0.361896   
C14      C      0.004410000000     0.399650000000     0.981940000000     0.362526   
C15      C      0.100160000000     0.516900000000     0.994210000000     0.366005   
C16      C      0.991920000000     0.503580000000     0.100910000000     0.36391    
C17      C      0.883550000000     0.493630000000     0.990950000000     0.360633   
C18      C      0.980600000000     0.617200000000     0.999430000000     0.365224   
C19      C      0.010380000000     0.412740000000     0.490360000000     0.364082   
C20      C      0.016750000000     0.518620000000     0.379980000000     0.360778   
C21      C      0.908250000000     0.529100000000     0.491090000000     0.366138   
C22      C      0.019160000000     0.631350000000     0.488480000000     0.364266   
C23      C      0.126860000000     0.518700000000     0.486310000000     0.365368   
C24      C      0.022230000000     0.520030000000     0.597800000000     0.362081   
C25      C      0.388820000000     0.994930000000     0.018480000000     0.361122   
C26      C      0.504050000000     0.981690000000     0.121200000000     0.366291   
C27      C      0.499820000000     0.882910000000     0.009980000000     0.365731   
C28      C      0.606580000000     0.991780000000     0.999990000000     0.365366   
C29      C      0.503530000000     0.100010000000     0.025000000000     0.363647   
C30      C      0.486730000000     0.998480000000     0.904010000000     0.362587   
C31      C      0.412030000000     0.018800000000     0.521110000000     0.361942   
C32      C      0.514850000000     0.007250000000     0.403380000000     0.365056   
C33      C      0.525770000000     0.119570000000     0.503780000000     0.363082   
C34      C      0.629540000000     0.007350000000     0.510780000000     0.36452    
C35      C      0.515610000000     0.901530000000     0.509540000000     0.363428   
C36      C      0.525010000000     0.011000000000     0.621750000000     0.361127   
C37      C      0.381670000000     0.497070000000     0.990370000000     0.364742   
C38      C      0.484570000000     0.383100000000     0.001360000000     0.364254   
C39      C      0.491250000000     0.497100000000     0.890670000000     0.364597   
C40      C      0.598320000000     0.489110000000     0.992860000000     0.362443   
C41      C      0.488930000000     0.485030000000     0.108850000000     0.364066   
C42      C      0.491520000000     0.599410000000     0.013700000000     0.364202   
C43      C      0.407540000000     0.510420000000     0.512800000000     0.364924   
C44      C      0.519050000000     0.619730000000     0.496950000000     0.36241    
C45      C      0.521250000000     0.506370000000     0.607380000000     0.363989   
C46      C      0.624130000000     0.510490000000     0.494810000000     0.36449    
C47      C      0.503050000000     0.514390000000     0.390290000000     0.36271    
C48      C      0.520470000000     0.401740000000     0.491090000000     0.364358   
C49      C      0.541070000000     0.537720000000     0.670070000000     0.00926346 
C50      C      0.495410000000     0.463330000000     0.826090000000     0.0110085  
C51      C      0.482110000000     0.537180000000     0.830500000000     0.0509374  
C52      C      0.523530000000     0.470380000000     0.791770000000    -0.103097   
C53      C      0.516220000000     0.546680000000     0.706640000000    -0.10055    
C54      C      0.510140000000     0.544180000000     0.795440000000    -0.112963   
C55      C      0.509130000000     0.509150000000     0.729790000000     0.0184757  
C56      C      0.512680000000     0.507690000000     0.769790000000     0.0254262  
C57      C      0.516440000000     0.467600000000     0.669050000000     0.00903212 
C58      C      0.492040000000     0.475350000000     0.706030000000    -0.100058   
C59      C      0.533240000000     0.507620000000     0.324370000000     0.0095748  
C60      C      0.453100000000     0.471500000000     0.170940000000     0.0104672  
C61      C      0.526670000000     0.486120000000     0.171250000000     0.0517301  
C62      C      0.447260000000     0.497850000000     0.207310000000    -0.10348    
C63      C      0.521710000000     0.478490000000     0.292300000000    -0.100369   
C64      C      0.520900000000     0.511650000000     0.208100000000    -0.112508   
C65      C      0.485570000000     0.493330000000     0.270930000000     0.0180187  
C66      C      0.484770000000     0.499340000000     0.231210000000     0.0256219  
C67      C      0.462420000000     0.528980000000     0.331250000000     0.00804416 
C68      C      0.450470000000     0.501120000000     0.297410000000    -0.100423   
C69      C      0.495990000000     0.682410000000     0.467120000000     0.00771146 
C70      C      0.541650000000     0.837180000000     0.532310000000     0.00969005 
C71      C      0.484270000000     0.840780000000     0.483510000000     0.0497526  
C72      C      0.558190000000     0.802240000000     0.509140000000    -0.10301    
C73      C      0.478960000000     0.719050000000     0.487300000000    -0.100428   
C74      C      0.501250000000     0.804060000000     0.462750000000    -0.112109   
C75      C      0.512340000000     0.742710000000     0.505270000000     0.0201888  
C76      C      0.524300000000     0.779040000000     0.491820000000     0.0254054  
C77      C      0.551970000000     0.682120000000     0.516470000000     0.00775922 
C78      C      0.534250000000     0.718760000000     0.536040000000    -0.100584   
C79      C      0.503110000000     0.185600000000     0.524930000000     0.00867681 
C80      C      0.553650000000     0.342230000000     0.465190000000     0.0094521  
C81      C      0.500730000000     0.337500000000     0.518940000000     0.0512839  
C82      C      0.540880000000     0.301710000000     0.449500000000    -0.103553   
C83      C      0.525990000000     0.223180000000     0.534190000000    -0.100627   
C84      C      0.488330000000     0.297780000000     0.501280000000    -0.113045   
C85      C      0.538520000000     0.242540000000     0.495990000000     0.0196074  
C86      C      0.523180000000     0.277420000000     0.482490000000     0.0261862  
C87      C      0.544430000000     0.177200000000     0.463070000000     0.00741505 
C88      C      0.565480000000     0.216230000000     0.472070000000    -0.100844   
C89      C      0.510340000000     0.657040000000     0.054470000000     0.00831453 
C90      C      0.472010000000     0.818580000000     0.988940000000     0.00995296 
C91      C      0.534980000000     0.821980000000     0.029660000000     0.050062   
C92      C      0.457550000000     0.784930000000     0.015130000000    -0.102123   
C93      C      0.528420000000     0.697090000000     0.043490000000    -0.100532   
C94      C      0.520740000000     0.786420000000     0.054150000000    -0.112455   
C95      C      0.499010000000     0.722630000000     0.021400000000     0.0198208  
C96      C      0.492330000000     0.761460000000     0.030330000000     0.0246842  
C97      C      0.460620000000     0.664040000000     0.999780000000     0.00892067 
C98      C      0.480280000000     0.702120000000     0.986420000000    -0.100818   
C99      C      0.532840000000     0.163710000000     0.004460000000     0.0103221  
C100     C      0.452880000000     0.322050000000     0.026060000000     0.0100384  
C101     C      0.512250000000     0.318870000000     0.980290000000     0.0509621  
C102     C      0.469480000000     0.287920000000     0.050700000000    -0.103047   
C103     C      0.509560000000     0.198720000000     0.988760000000    -0.100948   
C104     C      0.528990000000     0.285520000000     0.005820000000    -0.111789   
C105     C      0.492570000000     0.222260000000     0.022830000000     0.018581   
C106     C      0.496410000000     0.262370000000     0.025820000000     0.0251666  
C107     C      0.489190000000     0.160300000000     0.064100000000     0.00825098 
C108     C      0.467570000000     0.197960000000     0.051040000000    -0.100171   
C109     C      0.518300000000     0.045950000000     0.685640000000     0.00912033 
C110     C      0.468710000000     0.967620000000     0.840410000000     0.0109411  
C111     C      0.489020000000     0.039690000000     0.843690000000     0.0515128  
C112     C      0.495120000000     0.961190000000     0.804270000000    -0.103144   
C113     C      0.488960000000     0.037200000000     0.718590000000    -0.0998293  
C114     C      0.514170000000     0.034080000000     0.806520000000    -0.112071   
C115     C      0.501040000000     0.000720000000     0.741520000000     0.0175757  
C116     C      0.500510000000     0.999400000000     0.781740000000     0.0253028  
C117     C      0.538250000000     0.974470000000     0.683640000000     0.00841476 
C118     C      0.508680000000     0.964540000000     0.716410000000    -0.100131   
C119     C      0.548190000000     0.017030000000     0.339440000000     0.00894687 
C120     C      0.469860000000     0.982020000000     0.185590000000     0.0113549  
C121     C      0.540810000000     0.958750000000     0.179650000000     0.05184    
C122     C      0.479840000000     0.004060000000     0.223480000000    -0.102875   
C123     C      0.554810000000     0.986700000000     0.306650000000    -0.100531   
C124     C      0.551190000000     0.980930000000     0.217890000000    -0.113133   
C125     C      0.516990000000     0.981640000000     0.283660000000     0.0179109  
C126     C      0.515260000000     0.986080000000     0.243810000000     0.0255851  
C127     C      0.475950000000     0.999790000000     0.342070000000     0.00896691 
C128     C      0.481650000000     0.970400000000     0.308460000000    -0.0999677  
C129     C      0.685230000000     0.494410000000     0.458930000000     0.00940046 
C130     C      0.845940000000     0.526070000000     0.528720000000     0.0113031  
C131     C      0.847120000000     0.549070000000     0.457230000000     0.0514728  
C132     C      0.808440000000     0.502640000000     0.520800000000    -0.102986   
C133     C      0.720930000000     0.520560000000     0.450410000000    -0.10054    
C134     C      0.809420000000     0.525210000000     0.449040000000    -0.112989   
C135     C      0.745880000000     0.524080000000     0.487190000000     0.0180137  
C136     C      0.785700000000     0.519800000000     0.486440000000     0.0254368  
C137     C      0.687350000000     0.513140000000     0.530890000000     0.00894881 
C138     C      0.724010000000     0.538110000000     0.523530000000    -0.0998902  
C139     C      0.190590000000     0.552850000000     0.495530000000     0.00990943 
C140     C      0.346640000000     0.475700000000     0.532270000000     0.0110501  
C141     C      0.345780000000     0.548990000000     0.516090000000     0.0514774  
C142     C      0.309540000000     0.469150000000     0.507410000000    -0.103283   
C143     C      0.222540000000     0.541570000000     0.524960000000    -0.100583   
C144     C      0.307490000000     0.543120000000     0.492880000000    -0.112101   
C145     C      0.245470000000     0.506330000000     0.509940000000     0.0181412  
C146     C      0.285330000000     0.506570000000     0.506020000000     0.025476   
C147     C      0.188340000000     0.482840000000     0.470430000000     0.00865719 
C148     C      0.220570000000     0.470670000000     0.499790000000    -0.100654   
C149     C      0.818700000000     0.508740000000     0.020510000000     0.00909286 
C150     C      0.657640000000     0.471950000000     0.954040000000     0.00945979 
C151     C      0.662610000000     0.514140000000     0.016200000000     0.0517306  
C152     C      0.697130000000     0.452230000000     0.964020000000    -0.102982   
C153     C      0.781510000000     0.523260000000     0.000080000000    -0.0997882  
C154     C      0.700890000000     0.492550000000     0.026520000000    -0.112483   
C155     C      0.760400000000     0.488680000000     0.981280000000     0.0182745  
C156     C      0.722130000000     0.478930000000     0.989660000000     0.0254086  
C157     C      0.825410000000     0.454890000000     0.969470000000     0.00732576 
C158     C      0.785590000000     0.466820000000     0.951420000000    -0.100144   
C159     C      0.315330000000     0.474270000000     0.010360000000     0.0095234  
C160     C      0.161160000000     0.552590000000     0.976210000000     0.0102204  
C161     C      0.163240000000     0.491500000000     0.020170000000     0.0524843  
C162     C      0.199120000000     0.539330000000     0.955600000000    -0.103755   
C163     C      0.282540000000     0.500500000000     0.026270000000    -0.100051   
C164     C      0.200280000000     0.478100000000     0.998220000000    -0.113873   
C165     C      0.261660000000     0.520210000000     0.992060000000     0.0181105  
C166     C      0.223140000000     0.513170000000     0.982680000000     0.0265372  
C167     C      0.323670000000     0.520550000000     0.952640000000     0.00763296 
C168     C      0.288850000000     0.545500000000     0.967130000000    -0.100225   
C169     C      0.010290000000     0.561390000000     0.824780000000     0.00781193 
C170     C      0.998960000000     0.489950000000     0.660110000000     0.0110167  
C171     C      0.054510000000     0.540040000000     0.660470000000     0.0496062  
C172     C      0.979770000000     0.510820000000     0.694870000000    -0.102931   
C173     C      0.035090000000     0.550900000000     0.788430000000    -0.099606   
C174     C      0.037530000000     0.558050000000     0.698880000000    -0.111765   
C175     C      0.012580000000     0.523660000000     0.760890000000     0.0175982  
C176     C      0.011040000000     0.529230000000     0.720850000000     0.0245146  
C177     C      0.969730000000     0.499980000000     0.816110000000     0.00884121 
C178     C      0.995550000000     0.487600000000     0.781390000000    -0.0997172  
C179     C      0.986220000000     0.541000000000     0.317820000000     0.00783841 
C180     C      0.025110000000     0.480130000000     0.161210000000     0.00964811 
C181     C      0.970380000000     0.532490000000     0.164360000000     0.0496992  
C182     C      0.011730000000     0.464860000000     0.201460000000    -0.103699   
C183     C      0.001710000000     0.553000000000     0.277260000000    -0.101024   
C184     C      0.959980000000     0.516620000000     0.205640000000    -0.112223   
C185     C      0.015870000000     0.516520000000     0.255920000000     0.0212017  
C186     C      0.996100000000     0.499160000000     0.225150000000     0.0262256  
C187     C      0.036220000000     0.484680000000     0.318510000000     0.00737846 
C188     C      0.050070000000     0.497820000000     0.277560000000    -0.101071   
C189     C      0.985660000000     0.849290000000     0.552450000000     0.00910831 
C190     C      0.055700000000     0.693490000000     0.498870000000     0.0116761  
C191     C      0.984210000000     0.694200000000     0.476340000000     0.0507014  
C192     C      0.047170000000     0.726260000000     0.528370000000    -0.103053   
C193     C      0.976460000000     0.815240000000     0.524080000000    -0.100107   
C194     C      0.975530000000     0.727970000000     0.505740000000    -0.11244    
C195     C      0.013280000000     0.791160000000     0.516620000000     0.0177509  
C196     C      0.012620000000     0.751030000000     0.514970000000     0.0252616  
C197     C      0.056640000000     0.849300000000     0.531370000000     0.00942393 
C198     C      0.049080000000     0.814600000000     0.503720000000    -0.0996552  
C199     C      0.045520000000     0.193240000000     0.550560000000     0.00960251 
C200     C      0.972460000000     0.351170000000     0.501090000000     0.0110016  
C201     C      0.043530000000     0.349250000000     0.477420000000     0.0515325  
C202     C      0.980590000000     0.316710000000     0.529020000000    -0.102732   
C203     C      0.053160000000     0.229040000000     0.524140000000    -0.0999208  
C204     C      0.052280000000     0.315470000000     0.506500000000    -0.112996   
C205     C      0.015430000000     0.252030000000     0.517760000000     0.0172975  
C206     C      0.015310000000     0.292170000000     0.515330000000     0.0253523  
C207     C      0.974860000000     0.190660000000     0.528830000000     0.00915422 
C208     C      0.980460000000     0.227830000000     0.503920000000    -0.0994406  
C209     C      0.847180000000     0.040790000000     0.486660000000     0.00724622 
C210     C      0.692670000000     0.980400000000     0.535480000000     0.00968026 
C211     C      0.690830000000     0.031720000000     0.479880000000     0.0503052  
C212     C      0.730200000000     0.999980000000     0.550990000000    -0.103359   
C213     C      0.810930000000     0.020460000000     0.468990000000    -0.100478   
C214     C      0.729220000000     0.049230000000     0.496360000000    -0.112786   
C215     C      0.787220000000     0.001910000000     0.501960000000     0.0208253  
C216     C      0.752870000000     0.017340000000     0.516680000000     0.0261987  
C217     C      0.846150000000     0.989830000000     0.542250000000     0.00768329 
C218     C      0.810840000000     0.970250000000     0.522420000000    -0.101049   
C219     C      0.346200000000     0.997140000000     0.498870000000     0.00866848 
C220     C      0.188560000000     0.040670000000     0.565200000000     0.00985184 
C221     C      0.191030000000     0.993580000000     0.506440000000     0.0509196  
C222     C      0.227120000000     0.059840000000     0.551720000000    -0.103402   
C223     C      0.310010000000     0.984120000000     0.522000000000    -0.100581   
C224     C      0.229520000000     0.013590000000     0.493600000000    -0.112208   
C225     C      0.289300000000     0.020020000000     0.538490000000     0.0191722  
C226     C      0.251540000000     0.030440000000     0.528700000000     0.0254892  
C227     C      0.353770000000     0.055440000000     0.545110000000     0.00744914 
C228     C      0.315420000000     0.043680000000     0.566030000000    -0.100564   
C229     C      0.975560000000     0.836920000000     0.065020000000     0.00801875 
C230     C      0.004680000000     0.683660000000     0.981160000000     0.0104033  
C231     C      0.943680000000     0.675520000000     0.023950000000     0.0497873  
C232     C      0.019870000000     0.715220000000     0.009210000000    -0.10244    
C233     C      0.952920000000     0.801670000000     0.047820000000    -0.100447   
C234     C      0.957360000000     0.710890000000     0.049380000000    -0.112146   
C235     C      0.979730000000     0.777120000000     0.021720000000     0.019383   
C236     C      0.985370000000     0.737420000000     0.026610000000     0.0249325  
C237     C      0.023940000000     0.834060000000     0.008730000000     0.00976151 
C238     C      0.999940000000     0.801090000000     0.989850000000    -0.101041   
C239     C      0.037830000000     0.338660000000     0.004150000000     0.00990803 
C240     C      0.971260000000     0.174990000000     0.980380000000     0.00965573 
C241     C      0.027880000000     0.181740000000     0.029370000000     0.0510127  
C242     C      0.988620000000     0.208310000000     0.955300000000    -0.102954   
C243     C      0.018830000000     0.300550000000     0.018450000000    -0.100087   
C244     C      0.044740000000     0.214860000000     0.003480000000    -0.111694   
C245     C      0.005350000000     0.275810000000     0.983660000000     0.0180958  
C246     C      0.012410000000     0.236030000000     0.980990000000     0.0246953  
C247     C      0.995350000000     0.338070000000     0.943520000000     0.00814023 
C248     C      0.978440000000     0.297690000000     0.955230000000    -0.0998611  
C249     C      0.828540000000     0.047070000000     0.010210000000     0.00942513 
C250     C      0.670540000000     0.963340000000     0.020160000000     0.0115779  
C251     C      0.667100000000     0.013540000000     0.964890000000     0.049647   
C252     C      0.703970000000     0.986110000000     0.039340000000    -0.103091   
C253     C      0.794490000000     0.032610000000     0.984340000000    -0.100556   
C254     C      0.704980000000     0.033300000000     0.981070000000    -0.111725   
C255     C      0.768910000000     0.003510000000     0.006840000000     0.0181936  
C256     C      0.728620000000     0.006020000000     0.007880000000     0.0247051  
C257     C      0.824670000000     0.986020000000     0.051970000000     0.00914521 
C258     C      0.792090000000     0.969850000000     0.025430000000    -0.100142   
C259     C      0.330160000000     0.022610000000     0.051520000000     0.00767645 
C260     C      0.169750000000     0.979940000000     0.003420000000     0.0104279  
C261     C      0.170640000000     0.036990000000     0.053110000000     0.0493628  
C262     C      0.206920000000     0.963570000000     0.022670000000    -0.103282   
C263     C      0.292270000000     0.041780000000     0.036430000000    -0.100964   
C264     C      0.209750000000     0.020310000000     0.069310000000    -0.111919   
C265     C      0.265810000000     0.009960000000     0.019880000000     0.0209208  
C266     C      0.231460000000     0.997640000000     0.037400000000     0.0253838  
C267     C      0.323270000000     0.969440000000     0.998920000000     0.00709518 
C268     C      0.285190000000     0.989420000000     0.985220000000    -0.100928   
C269     C      0.970370000000     0.020660000000     0.696580000000     0.00991717 
C270     C      0.034010000000     0.977420000000     0.857510000000     0.011276   
C271     C      0.962340000000     0.998840000000     0.854330000000     0.0515417  
C272     C      0.044210000000     0.004060000000     0.822590000000    -0.103446   
C273     C      0.976850000000     0.992810000000     0.731270000000    -0.100453   
C274     C      0.971630000000     0.023210000000     0.817330000000    -0.112008   
C275     C      0.010850000000     0.006860000000     0.756540000000     0.0179763  
C276     C      0.008480000000     0.008910000000     0.796510000000     0.0252434  
C277     C      0.041000000000     0.042920000000     0.700240000000     0.00930884 
C278     C      0.048870000000     0.014550000000     0.734520000000    -0.10059    
C279     C      0.976600000000     0.987500000000     0.198870000000     0.00913492 
C280     C      0.023870000000     0.058540000000     0.357060000000     0.0109413  
C281     C      0.041610000000     0.985670000000     0.358220000000     0.0512385  
C282     C      0.999100000000     0.052330000000     0.320010000000    -0.102591   
C283     C      0.003330000000     0.978240000000     0.233960000000    -0.100186   
C284     C      0.016140000000     0.978900000000     0.321230000000    -0.112728   
C285     C      0.011800000000     0.015640000000     0.256830000000     0.0174721  
C286     C      0.012310000000     0.016320000000     0.297040000000     0.0252309  
C287     C      0.002400000000     0.057020000000     0.195700000000     0.00845877 
C288     C      0.027620000000     0.049640000000     0.232340000000    -0.0994316  
H1       H      0.532820000000     0.568990000000     0.723840000000     0.0451941  
H2       H      0.466240000000     0.454960000000     0.813870000000     0.0335927  
H3       H      0.545010000000     0.454560000000     0.678220000000     0.0311647  
H4       H      0.488550000000     0.447520000000     0.722660000000     0.046193   
H5       H      0.525080000000     0.443680000000     0.773120000000     0.0463285  
H6       H      0.499970000000     0.570750000000     0.779220000000     0.0504822  
H7       H      0.543290000000     0.565140000000     0.652260000000     0.0412288  
H8       H      0.506180000000     0.437700000000     0.843400000000     0.0418067  
H9       H      0.461890000000     0.483980000000     0.696770000000     0.0566481  
H10      H      0.540030000000     0.550880000000     0.806900000000     0.0548446  
H11      H      0.501060000000     0.445320000000     0.650640000000     0.0422994  
H12      H      0.487540000000     0.559620000000     0.697730000000     0.0544821  
H13      H      0.553630000000     0.474340000000     0.803910000000     0.0550225  
H14      H      0.486220000000     0.562520000000     0.850880000000     0.0347201  
H15      H      0.571280000000     0.529590000000     0.679680000000     0.0324786  
H16      H      0.547170000000     0.472180000000     0.272970000000     0.0478655  
H17      H      0.455300000000     0.440320000000     0.180820000000     0.0348372  
H18      H      0.467120000000     0.558980000000     0.318880000000     0.0326225  
H19      H      0.425700000000     0.515370000000     0.281610000000     0.0447046  
H20      H      0.422310000000     0.485240000000     0.224210000000     0.0456656  
H21      H      0.548350000000     0.513450000000     0.225630000000     0.0502242  
H22      H      0.559030000000     0.495780000000     0.340630000000     0.0413357  
H23      H      0.426360000000     0.473900000000     0.152240000000     0.0404027  
H24      H      0.439850000000     0.472710000000     0.309770000000     0.052521   
H25      H      0.515780000000     0.542440000000     0.198080000000     0.0564352  
H26      H      0.437650000000     0.530760000000     0.352560000000     0.0402719  
H27      H      0.514230000000     0.449890000000     0.306440000000     0.0566023  
H28      H      0.439200000000     0.528180000000     0.197890000000     0.0528786  
H29      H      0.549840000000     0.500570000000     0.153250000000     0.035245   
H30      H      0.542650000000     0.535600000000     0.310110000000     0.0302779  
H31      H      0.460000000000     0.734910000000     0.466320000000     0.0467378  
H32      H      0.525280000000     0.825760000000     0.558270000000     0.0344878  
H33      H      0.575220000000     0.691720000000     0.495520000000     0.0322728  
H34      H      0.557170000000     0.734620000000     0.552630000000     0.0453563  
H35      H      0.578890000000     0.785340000000     0.527560000000     0.0456733  
H36      H      0.478240000000     0.788710000000     0.445730000000     0.049681   
H37      H      0.471200000000     0.664470000000     0.455580000000     0.0423857  
H38      H      0.566820000000     0.854680000000     0.543720000000     0.0416794  
H39      H      0.512880000000     0.708920000000     0.558810000000     0.0546298  
H40      H      0.522090000000     0.814450000000     0.439720000000     0.0544133  
H41      H      0.566340000000     0.663950000000     0.539590000000     0.0418455  
H42      H      0.458920000000     0.709320000000     0.511300000000     0.0554448  
H43      H      0.576570000000     0.813900000000     0.484660000000     0.0538356  
H44      H      0.472870000000     0.860460000000     0.459930000000     0.0351649  
H45      H      0.513860000000     0.692060000000     0.441420000000     0.0323476  
H46      H      0.509170000000     0.242290000000     0.554480000000     0.0478691  
H47      H      0.580710000000     0.338300000000     0.483160000000     0.0349258  
H48      H      0.520880000000     0.183030000000     0.441090000000     0.0326077  
H49      H      0.575170000000     0.228670000000     0.443660000000     0.0447723  
H50      H      0.566920000000     0.288470000000     0.435340000000     0.0454816  
H51      H      0.471550000000     0.279730000000     0.522640000000     0.0498407  
H52      H      0.495470000000     0.170980000000     0.553220000000     0.0413074  
H53      H      0.561830000000     0.360920000000     0.439560000000     0.0409186  
H54      H      0.592480000000     0.210050000000     0.489480000000     0.0530139  
H55      H      0.466580000000     0.303880000000     0.477580000000     0.0548777  
H56      H      0.565960000000     0.156990000000     0.448950000000     0.0421186  
H57      H      0.552860000000     0.214940000000     0.550970000000     0.0550213  
H58      H      0.518420000000     0.305880000000     0.426060000000     0.0521502  
H59      H      0.473170000000     0.352820000000     0.527710000000     0.0345194  
H60      H      0.475120000000     0.193690000000     0.510020000000     0.0321037  
H61      H      0.538140000000     0.710120000000     0.071730000000     0.0455426  
H62      H      0.485500000000     0.805820000000     0.961950000000     0.0341372  
H63      H      0.435870000000     0.671500000000     0.019860000000     0.0316977  
H64      H      0.459060000000     0.719990000000     0.969480000000     0.0458715  
H65      H      0.434730000000     0.767450000000     0.999910000000     0.0453266  
H66      H      0.546880000000     0.770600000000     0.065410000000     0.0505104  
H67      H      0.534140000000     0.637710000000     0.065910000000     0.0419843  
H68      H      0.446170000000     0.836280000000     0.979540000000     0.0410132  
H69      H      0.503980000000     0.694600000000     0.965140000000     0.0564823  
H70      H      0.504920000000     0.797600000000     0.080560000000     0.0556676  
H71      H      0.447970000000     0.649200000000     0.973480000000     0.0420934  
H72      H      0.554740000000     0.692460000000     0.024650000000     0.0549989  
H73      H      0.442140000000     0.798040000000     0.040890000000     0.0544357  
H74      H      0.550760000000     0.841700000000     0.050480000000     0.0371482  
H75      H      0.489080000000     0.661730000000     0.078930000000     0.0317578  
H76      H      0.527970000000     0.215460000000     0.967870000000     0.0476861  
H77      H      0.430930000000     0.309790000000     0.005080000000     0.0344929  
H78      H      0.512800000000     0.168900000000     0.085100000000     0.0311618  
H79      H      0.460430000000     0.213960000000     0.078570000000     0.0447183  
H80      H      0.443680000000     0.271920000000     0.062490000000     0.0457486  
H81      H      0.550780000000     0.267870000000     0.989280000000     0.0493473  
H82      H      0.544660000000     0.146780000000     0.979070000000     0.0415377  
H83      H      0.436610000000     0.342130000000     0.046140000000     0.0420397  
H84      H      0.439590000000     0.189900000000     0.036170000000     0.0536153  
H85      H      0.546770000000     0.299400000000     0.029580000000     0.0559962  
H86      H      0.468180000000     0.141260000000     0.080420000000     0.0414092  
H87      H      0.484630000000     0.187350000000     0.970870000000     0.0575677  
H88      H      0.486370000000     0.299930000000     0.076030000000     0.0536388  
H89      H      0.537710000000     0.336880000000     0.970400000000     0.0349618  
H90      H      0.558310000000     0.174970000000     0.021680000000     0.0307482  
H91      H      0.484800000000     0.063890000000     0.736860000000     0.0471725  
H92      H      0.438170000000     0.973280000000     0.830140000000     0.0351074  
H93      H      0.567490000000     0.979890000000     0.697330000000     0.0326282  
H94      H      0.521490000000     0.939880000000     0.733680000000     0.0452862  
H95      H      0.480690000000     0.938240000000     0.785930000000     0.0462253  
H96      H      0.516980000000     0.062260000000     0.790240000000     0.0504993  
H97      H      0.507030000000     0.070810000000     0.667540000000     0.0410826  
H98      H      0.468230000000     0.939850000000     0.857820000000     0.0406684  
H99      H      0.480560000000     0.954340000000     0.703190000000     0.0536403  
H100     H      0.544640000000     0.027220000000     0.816250000000     0.0576544  
H101     H      0.541070000000     0.948380000000     0.664020000000     0.0414186  
H102     H      0.459820000000     0.031210000000     0.704990000000     0.0562815  
H103     H      0.524320000000     0.949990000000     0.813800000000     0.0540487  
H104     H      0.504790000000     0.061020000000     0.862880000000     0.0354195  
H105     H      0.546330000000     0.055840000000     0.699350000000     0.0306031  
H106     H      0.579520000000     0.997790000000     0.288430000000     0.0451475  
H107     H      0.457240000000     0.952880000000     0.193690000000     0.0326156  
H108     H      0.465830000000     0.028220000000     0.329250000000     0.030351   
H109     H      0.454000000000     0.967110000000     0.291550000000     0.0454994  
H110     H      0.453220000000     0.005810000000     0.242140000000     0.0459357  
H111     H      0.575250000000     0.964640000000     0.233000000000     0.0503627  
H112     H      0.575450000000     0.018760000000     0.357440000000     0.0419043  
H113     H      0.446450000000     0.998500000000     0.169770000000     0.040568   
H114     H      0.487490000000     0.940910000000     0.321500000000     0.0553693  
H115     H      0.562760000000     0.010630000000     0.210270000000     0.0545231  
H116     H      0.452240000000     0.988930000000     0.361810000000     0.0409764  
H117     H      0.563600000000     0.957940000000     0.319650000000     0.0540359  
H118     H      0.487360000000     0.035010000000     0.215740000000     0.0548756  
H119     H      0.566810000000     0.961410000000     0.159960000000     0.033878   
H120     H      0.543360000000     0.046470000000     0.325790000000     0.0325112  
H121     H      0.737000000000     0.506540000000     0.425620000000     0.0449272  
H122     H      0.837510000000     0.554910000000     0.541800000000     0.0323946  
H123     H      0.696950000000     0.483580000000     0.541300000000     0.0306855  
H124     H      0.742130000000     0.539010000000     0.550600000000     0.0454454  
H125     H      0.791260000000     0.500210000000     0.548390000000     0.0457551  
H126     H      0.792590000000     0.540380000000     0.425380000000     0.0502902  
H127     H      0.666100000000     0.494350000000     0.432350000000     0.0407148  
H128     H      0.863610000000     0.510220000000     0.551250000000     0.0403087  
H129     H      0.714570000000     0.569020000000     0.518160000000     0.0554813  
H130     H      0.817640000000     0.495610000000     0.437610000000     0.0545653  
H131     H      0.669930000000     0.526780000000     0.555020000000     0.0410665  
H132     H      0.711090000000     0.550350000000     0.440990000000     0.053788   
H133     H      0.816880000000     0.471980000000     0.512890000000     0.0547624  
H134     H      0.865480000000     0.546940000000     0.430200000000     0.0342832  
H135     H      0.695510000000     0.463670000000     0.463910000000     0.0326809  
H136     H      0.240920000000     0.567540000000     0.532160000000     0.0479167  
H137     H      0.337880000000     0.479110000000     0.563650000000     0.0354354  
H138     H      0.202440000000     0.490100000000     0.441760000000     0.0324249  
H139     H      0.237770000000     0.446650000000     0.485810000000     0.0448201  
H140     H      0.293130000000     0.444430000000     0.521230000000     0.0458409  
H141     H      0.289760000000     0.570560000000     0.492710000000     0.0504381  
H142     H      0.172500000000     0.577060000000     0.508100000000     0.0410977  
H143     H      0.365190000000     0.448780000000     0.530150000000     0.040143   
H144     H      0.206870000000     0.458910000000     0.527090000000     0.0536464  
H145     H      0.315560000000     0.538460000000     0.461480000000     0.0567234  
H146     H      0.168530000000     0.457210000000     0.465640000000     0.0408831  
H147     H      0.208150000000     0.532960000000     0.553080000000     0.0574998  
H148     H      0.317860000000     0.460430000000     0.476970000000     0.0529316  
H149     H      0.363090000000     0.571940000000     0.500420000000     0.0350815  
H150     H      0.205050000000     0.564480000000     0.468540000000     0.0301288  
H151     H      0.763770000000     0.541140000000     0.020640000000     0.0478435  
H152     H      0.663120000000     0.495350000000     0.931750000000     0.0342409  
H153     H      0.820320000000     0.429690000000     0.989820000000     0.031894   
H154     H      0.772100000000     0.439160000000     0.940700000000     0.0445112  
H155     H      0.710890000000     0.444940000000     0.935410000000     0.0453861  
H156     H      0.718720000000     0.509800000000     0.047630000000     0.0500745  
H157     H      0.833840000000     0.534600000000     0.033720000000     0.0424874  
H158     H      0.638550000000     0.449560000000     0.939690000000     0.0413686  
H159     H      0.790680000000     0.486280000000     0.925580000000     0.0530796  
H160     H      0.692840000000     0.465660000000     0.043460000000     0.0560126  
H161     H      0.844760000000     0.444040000000     0.945420000000     0.0416394  
H162     H      0.790160000000     0.544070000000     0.976290000000     0.0565647  
H163     H      0.691650000000     0.424150000000     0.979980000000     0.0524325  
H164     H      0.646890000000     0.519280000000     0.044460000000     0.0348616  
H165     H      0.810290000000     0.488540000000     0.044910000000     0.0322395  
H166     H      0.263360000000     0.483900000000     0.046650000000     0.0475956  
H167     H      0.168960000000     0.574850000000     0.998970000000     0.0340792  
H168     H      0.312540000000     0.499350000000     0.930250000000     0.0325314  
H169     H      0.274930000000     0.558170000000     0.940580000000     0.0450417  
H170     H      0.214400000000     0.566680000000     0.946690000000     0.045771   
H171     H      0.217420000000     0.456740000000     0.015910000000     0.050428   
H172     H      0.330800000000     0.460460000000     0.035680000000     0.0416087  
H173     H      0.142450000000     0.567850000000     0.954120000000     0.0413059  
H174     H      0.300000000000     0.570360000000     0.985300000000     0.0536085  
H175     H      0.190650000000     0.460590000000     0.972250000000     0.0562097  
H176     H      0.344940000000     0.540270000000     0.937520000000     0.0429757  
H177     H      0.296060000000     0.523900000000     0.044800000000     0.0558262  
H178     H      0.191640000000     0.522610000000     0.928450000000     0.0532297  
H179     H      0.146070000000     0.464390000000     0.026740000000     0.0348939  
H180     H      0.302030000000     0.450240000000     0.992470000000     0.0315073  
H181     H      0.042850000000     0.579460000000     0.774700000000     0.0448834  
H182     H      0.017000000000     0.465050000000     0.671420000000     0.0336048  
H183     H      0.943690000000     0.516110000000     0.804540000000     0.0317855  
H184     H      0.978990000000     0.467110000000     0.762370000000     0.0450377  
H185     H      0.959330000000     0.490430000000     0.709770000000     0.045676   
H186     H      0.062550000000     0.568960000000     0.716760000000     0.0501455  
H187     H      0.029150000000     0.577880000000     0.845830000000     0.04221    
H188     H      0.975300000000     0.477050000000     0.641580000000     0.0414252  
H189     H      0.020520000000     0.469920000000     0.793010000000     0.0552004  
H190     H      0.019590000000     0.584310000000     0.691080000000     0.0539684  
H191     H      0.958980000000     0.472990000000     0.831240000000     0.0409799  
H192     H      0.062690000000     0.536110000000     0.797850000000     0.0539874  
H193     H      0.960830000000     0.534900000000     0.683290000000     0.0551231  
H194     H      0.066180000000     0.565010000000     0.642780000000     0.0352111  
H195     H      0.986460000000     0.581770000000     0.815310000000     0.031956   
H196     H      0.979580000000     0.570720000000     0.261390000000     0.0478495  
H197     H      0.051660000000     0.498850000000     0.165310000000     0.0363004  
H198     H      0.016060000000     0.459090000000     0.315050000000     0.034353   
H199     H      0.064330000000     0.472830000000     0.262530000000     0.0456768  
H200     H      0.035770000000     0.447980000000     0.215230000000     0.0460918  
H201     H      0.943770000000     0.538640000000     0.223350000000     0.049812   
H202     H      0.978440000000     0.568330000000     0.334150000000     0.0430229  
H203     H      0.034140000000     0.454280000000     0.143220000000     0.0417216  
H204     H      0.073690000000     0.520200000000     0.281260000000     0.0537297  
H205     H      0.938140000000     0.492520000000     0.201730000000     0.054217   
H206     H      0.062310000000     0.474250000000     0.335280000000     0.0422742  
H207     H      0.027010000000     0.573340000000     0.281470000000     0.0550059  
H208     H      0.987720000000     0.443070000000     0.196900000000     0.0533182  
H209     H      0.942090000000     0.538730000000     0.149150000000     0.0346068  
H210     H      0.958680000000     0.523750000000     0.313890000000     0.0334722  
H211     H      0.952880000000     0.797280000000     0.537920000000     0.045026   
H212     H      0.067930000000     0.707130000000     0.471720000000     0.0326215  
H213     H      0.067350000000     0.837360000000     0.559940000000     0.0305918  
H214     H      0.076280000000     0.796880000000     0.501020000000     0.0461687  
H215     H      0.074370000000     0.743320000000     0.533960000000     0.0462603  
H216     H      0.951790000000     0.746920000000     0.493490000000     0.0505775  
H217     H      0.959030000000     0.868120000000     0.555170000000     0.0402111  
H218     H      0.079000000000     0.674010000000     0.511050000000     0.0404608  
H219     H      0.043060000000     0.826430000000     0.473780000000     0.0571078  
H220     H      0.964190000000     0.715120000000     0.533650000000     0.0546622  
H221     H      0.080490000000     0.867980000000     0.519010000000     0.0416946  
H222     H      0.965320000000     0.827130000000     0.495690000000     0.0538532  
H223     H      0.039240000000     0.712520000000     0.557020000000     0.0558775  
H224     H      0.957730000000     0.674950000000     0.475780000000     0.0343006  
H225     H      0.992270000000     0.836800000000     0.582030000000     0.0324734  
H226     H      0.075870000000     0.247220000000     0.539120000000     0.0448086  
H227     H      0.959030000000     0.339150000000     0.473760000000     0.0325487  
H228     H      0.963030000000     0.199720000000     0.558000000000     0.0302772  
H229     H      0.952420000000     0.244360000000     0.503370000000     0.0453022  
H230     H      0.953190000000     0.299600000000     0.533160000000     0.0456064  
H231     H      0.076160000000     0.296880000000     0.494000000000     0.0501759  
H232     H      0.073100000000     0.175720000000     0.552540000000     0.0401671  
H233     H      0.950210000000     0.370880000000     0.514780000000     0.0401753  
H234     H      0.986260000000     0.218710000000     0.473010000000     0.0559863  
H235     H      0.063510000000     0.328130000000     0.534540000000     0.0548368  
H236     H      0.952320000000     0.171590000000     0.514690000000     0.0405455  
H237     H      0.064920000000     0.219200000000     0.495210000000     0.0537223  
H238     H      0.988030000000     0.328950000000     0.558470000000     0.0547189  
H239     H      0.070480000000     0.367800000000     0.476330000000     0.0341772  
H240     H      0.038040000000     0.203760000000     0.580680000000     0.0325021  
H241     H      0.794770000000     0.041160000000     0.449890000000     0.0463727  
H242     H      0.700990000000     0.953870000000     0.518140000000     0.0344261  
H243     H      0.835460000000     0.008880000000     0.566680000000     0.0332046  
H244     H      0.794460000000     0.951930000000     0.543670000000     0.0451899  
H245     H      0.746680000000     0.979150000000     0.569680000000     0.0457656  
H246     H      0.744910000000     0.066420000000     0.473650000000     0.0496903  
H247     H      0.866190000000     0.051090000000     0.462080000000     0.0411344  
H248     H      0.675170000000     0.970100000000     0.561150000000     0.0409392  
H249     H      0.821890000000     0.948980000000     0.500060000000     0.0533582  
H250     H      0.721190000000     0.071710000000     0.518830000000     0.0545509  
H251     H      0.864460000000     0.966200000000     0.555610000000     0.0419344  
H252     H      0.821140000000     0.996800000000     0.448750000000     0.0533354  
H253     H      0.721610000000     0.024270000000     0.571250000000     0.0534258  
H254     H      0.672570000000     0.057150000000     0.470270000000     0.0352969  
H255     H      0.837370000000     0.067340000000     0.503170000000     0.0329237  
H256     H      0.291540000000     0.964380000000     0.503900000000     0.0478973  
H257     H      0.195400000000     0.019110000000     0.588920000000     0.0343487  
H258     H      0.346950000000     0.079190000000     0.523560000000     0.0325103  
H259     H      0.302200000000     0.071410000000     0.576740000000     0.0447111  
H260     H      0.241390000000     0.071070000000     0.578690000000     0.0455087  
H261     H      0.246930000000     0.994210000000     0.474020000000     0.0502058  
H262     H      0.361520000000     0.970300000000     0.488040000000     0.0424597  
H263     H      0.170010000000     0.064020000000     0.578690000000     0.0416583  
H264     H      0.322490000000     0.025390000000     0.592270000000     0.0528733  
H265     H      0.221540000000     0.038830000000     0.474260000000     0.0556351  
H266     H      0.374020000000     0.068240000000     0.567410000000     0.0416553  
H267     H      0.319890000000     0.965530000000     0.547110000000     0.0558776  
H268     H      0.220460000000     0.085600000000     0.532610000000     0.0529753  
H269     H      0.174290000000     0.986840000000     0.479120000000     0.0352145  
H270     H      0.336520000000     0.014320000000     0.472690000000     0.0326605  
H271     H      0.940950000000     0.785430000000     0.073370000000     0.0454456  
H272     H      0.989380000000     0.698230000000     0.956130000000     0.0340644  
H273     H      0.047830000000     0.820700000000     0.026700000000     0.0314391  
H274     H      0.018340000000     0.784070000000     0.969130000000     0.0459085  
H275     H      0.042330000000     0.733650000000     0.994590000000     0.0456717  
H276     H      0.930920000000     0.726020000000     0.060920000000     0.0504742  
H277     H      0.954320000000     0.856410000000     0.080500000000     0.0419604  
H278     H      0.030380000000     0.667630000000     0.968830000000     0.0416893  
H279     H      0.976790000000     0.814720000000     0.971130000000     0.056369   
H280     H      0.973350000000     0.699340000000     0.075520000000     0.0552584  
H281     H      0.037900000000     0.851690000000     0.984940000000     0.041388   
H282     H      0.927740000000     0.812540000000     0.029990000000     0.0546445  
H283     H      0.035850000000     0.700390000000     0.033660000000     0.0556028  
H284     H      0.929840000000     0.654060000000     0.044430000000     0.0361786  
H285     H      0.996420000000     0.825590000000     0.087590000000     0.0316802  
H286     H      0.039160000000     0.285860000000     0.039060000000     0.0474693  
H287     H      0.947550000000     0.187530000000     0.999150000000     0.0341359  
H288     H      0.020030000000     0.333120000000     0.922580000000     0.031401   
H289     H      0.974250000000     0.281750000000     0.927080000000     0.0443711  
H290     H      0.963440000000     0.222370000000     0.940250000000     0.0451617  
H291     H      0.065010000000     0.233950000000     0.020360000000     0.049783   
H292     H      0.046500000000     0.356340000000     0.030310000000     0.0417088  
H293     H      0.957020000000     0.153530000000     0.960170000000     0.0415622  
H294     H      0.949220000000     0.301740000000     0.969320000000     0.0528495  
H295     H      0.064250000000     0.200830000000     0.981220000000     0.0553393  
H296     H      0.972270000000     0.354750000000     0.927420000000     0.0412132  
H297     H      0.992480000000     0.308160000000     0.036290000000     0.056818   
H298     H      0.008050000000     0.195590000000     0.932240000000     0.052733   
H299     H      0.053360000000     0.164620000000     0.040740000000     0.0351367  
H300     H      0.065110000000     0.331200000000     0.987660000000     0.0312575  
H301     H      0.778630000000     0.059550000000     0.975100000000     0.044978   
H302     H      0.683210000000     0.939630000000     0.001430000000     0.034667   
H303     H      0.810910000000     0.001690000000     0.077240000000     0.0318022  
H304     H      0.774680000000     0.947920000000     0.041880000000     0.0455704  
H305     H      0.719930000000     0.966450000000     0.059660000000     0.0462219  
H306     H      0.722010000000     0.044390000000     0.955510000000     0.0501345  
H307     H      0.848400000000     0.065610000000     0.991980000000     0.0416381  
H308     H      0.653280000000     0.948700000000     0.043790000000     0.0425468  
H309     H      0.806080000000     0.952830000000     0.001190000000     0.055995   
H310     H      0.696410000000     0.059580000000     0.998660000000     0.0537527  
H311     H      0.841990000000     0.960890000000     0.063840000000     0.0408875  
H312     H      0.806350000000     0.017980000000     0.957560000000     0.0553134  
H313     H      0.691150000000     0.009450000000     0.058430000000     0.0557946  
H314     H      0.648020000000     0.037630000000     0.953610000000     0.0349224  
H315     H      0.816140000000     0.066480000000     0.033540000000     0.0309735  
H316     H      0.279520000000     0.059980000000     0.060060000000     0.0463615  
H317     H      0.178140000000     0.996350000000     0.976320000000     0.0342365  
H318     H      0.315520000000     0.944210000000     0.018350000000     0.0329963  
H319     H      0.266500000000     0.968190000000     0.969240000000     0.0453939  
H320     H      0.222090000000     0.942980000000     0.002600000000     0.0458231  
H321     H      0.226640000000     0.043660000000     0.084340000000     0.0496451  
H322     H      0.350140000000     0.046530000000     0.061540000000     0.0421805  
H323     H      0.151390000000     0.954510000000     0.994040000000     0.0413204  
H324     H      0.292940000000     0.012040000000     0.962800000000     0.0541671  
H325     H      0.202480000000     0.999250000000     0.093350000000     0.0539918  
H326     H      0.338550000000     0.957250000000     0.972650000000     0.0416114  
H327     H      0.299880000000     0.062820000000     0.012490000000     0.0546448  
H328     H      0.198070000000     0.945030000000     0.048220000000     0.0536236  
H329     H      0.153280000000     0.047240000000     0.078920000000     0.0346661  
H330     H      0.322990000000     0.004290000000     0.077730000000     0.0330987  
H331     H      0.948910000000     0.988730000000     0.747490000000     0.0475433  
H332     H      0.028690000000     0.947020000000     0.846440000000     0.0348357  
H333     H      0.033390000000     0.072380000000     0.712470000000     0.0321993  
H334     H      0.071610000000     0.028540000000     0.753380000000     0.0449863  
H335     H      0.069080000000     0.989840000000     0.806840000000     0.045927   
H336     H      0.945370000000     0.025760000000     0.798130000000     0.050141   
H337     H      0.947670000000     0.007980000000     0.676720000000     0.0408147  
H338     H      0.060040000000     0.976200000000     0.877290000000     0.0407029  
H339     H      0.060720000000     0.986230000000     0.723090000000     0.0536421  
H340     H      0.977590000000     0.053950000000     0.827030000000     0.0561782  
H341     H      0.068540000000     0.046090000000     0.682870000000     0.0408194  
H342     H      0.984620000000     0.963250000000     0.719460000000     0.0568585  
H343     H      0.053960000000     0.033420000000     0.833350000000     0.0534991  
H344     H      0.939890000000     0.015400000000     0.871420000000     0.0347839  
H345     H      0.958570000000     0.048940000000     0.708220000000     0.029986   
H346     H      0.987690000000     0.955960000000     0.252110000000     0.0451495  
H347     H      0.053340000000     0.069340000000     0.347860000000     0.0329544  
H348     H      0.974340000000     0.070820000000     0.205350000000     0.03134    
H349     H      0.030790000000     0.077600000000     0.248820000000     0.0456858  
H350     H      0.999080000000     0.079940000000     0.302650000000     0.0461142  
H351     H      0.029140000000     0.954220000000     0.304010000000     0.050578   
H352     H      0.972570000000     0.959970000000     0.181550000000     0.0412601  
H353     H      0.010300000000     0.082360000000     0.374970000000     0.0408135  
H354     H      0.057740000000     0.041540000000     0.222530000000     0.0556299  
H355     H      0.986230000000     0.969470000000     0.330520000000     0.0547131  
H356     H      0.017650000000     0.078590000000     0.176350000000     0.041909   
H357     H      0.031430000000     0.965220000000     0.223430000000     0.0540323  
H358     H      0.968090000000     0.047430000000     0.329140000000     0.0551138  
H359     H      0.038280000000     0.958950000000     0.376920000000     0.0341263  
H360     H      0.947260000000     0.996640000000     0.210140000000     0.0327409  
N1       N      0.490870000000     0.499280000000     0.850390000000    -0.168681   
N2       N      0.524200000000     0.504610000000     0.647530000000    -0.165234   
N3       N      0.489310000000     0.482060000000     0.149110000000    -0.168564   
N4       N      0.499230000000     0.515750000000     0.350190000000    -0.165258   
N5       N      0.514560000000     0.861110000000     0.507690000000    -0.167989   
N6       N      0.521510000000     0.660000000000     0.494490000000    -0.164668   
N7       N      0.523310000000     0.361400000000     0.490100000000    -0.168643   
N8       N      0.526170000000     0.159640000000     0.498640000000    -0.165076   
N9       N      0.501690000000     0.842520000000     0.010060000000    -0.168218   
N10      N      0.489110000000     0.639040000000     0.021070000000    -0.165127   
N11      N      0.483810000000     0.342710000000     0.003240000000    -0.168139   
N12      N      0.507510000000     0.139820000000     0.030410000000    -0.165431   
N13      N      0.482370000000     0.001590000000     0.863990000000    -0.167861   
N14      N      0.526030000000     0.010220000000     0.662080000000    -0.164628   
N15      N      0.505250000000     0.975710000000     0.161050000000    -0.169487   
N16      N      0.513320000000     0.006570000000     0.363150000000    -0.165767   
N17      N      0.868230000000     0.533260000000     0.491980000000    -0.169333   
N18      N      0.664260000000     0.508150000000     0.494400000000    -0.165601   
N19      N      0.367860000000     0.511480000000     0.519370000000    -0.168827   
N20      N      0.167020000000     0.517900000000     0.484870000000    -0.16573    
N21      N      0.638460000000     0.490290000000     0.988740000000    -0.168208   
N22      N      0.843750000000     0.487250000000     0.992190000000    -0.164431   
N23      N      0.140350000000     0.519520000000     0.995720000000    -0.169225   
N24      N      0.341770000000     0.497900000000     0.985200000000    -0.165536   
N25      N      0.024460000000     0.517640000000     0.638120000000    -0.167955   
N26      N      0.992010000000     0.526150000000     0.842640000000    -0.164663   
N27      N      0.994200000000     0.503830000000     0.141300000000    -0.167959   
N28      N      0.015060000000     0.516520000000     0.339670000000    -0.164144   
N29      N      0.019440000000     0.671680000000     0.488610000000    -0.168751   
N30      N      0.020120000000     0.871620000000     0.538480000000    -0.165346   
N31      N      0.009000000000     0.372390000000     0.490580000000    -0.168733   
N32      N      0.012470000000     0.169930000000     0.535040000000    -0.165312   
N33      N      0.669890000000     0.007490000000     0.509840000000    -0.168359   
N34      N      0.868760000000     0.014470000000     0.514050000000    -0.165054   
N35      N      0.168020000000     0.019620000000     0.532890000000    -0.168489   
N36      N      0.371930000000     0.022170000000     0.523540000000    -0.164603   
N37      N      0.976820000000     0.657370000000     0.002000000000    -0.168073   
N38      N      0.998380000000     0.857990000000     0.034490000000    -0.16532    
N39      N      0.000970000000     0.156250000000     0.006320000000    -0.16819    
N40      N      0.010680000000     0.359950000000     0.977800000000    -0.16528    
N41      N      0.646650000000     0.990200000000     0.995540000000    -0.168639   
N42      N      0.849100000000     0.013900000000     0.029450000000    -0.165398   
N43      N      0.148290000000     0.007010000000     0.030310000000    -0.167876   
N44      N      0.348620000000     0.997080000000     0.021210000000    -0.164089   
N45      N      0.998340000000     0.991810000000     0.877860000000    -0.169253   
N46      N      0.007860000000     0.028580000000     0.676180000000    -0.16595    
N47      N      0.028790000000     0.021490000000     0.379530000000    -0.168041   
N48      N      0.993230000000     0.019840000000     0.175090000000    -0.16463    
O1       O      0.998550000000     0.007790000000     0.026500000000    -0.367474   
O2       O      0.976280000000     0.989670000000     0.117490000000    -0.305168   
O3       O      0.089090000000     0.032380000000     0.051110000000    -0.301007   
O4       O      0.021650000000     0.915810000000     0.008740000000    -0.305635   
O5       O      0.015950000000     0.041550000000     0.115320000000    -0.301517   
O6       O      0.975190000000     0.918110000000     0.054260000000    -0.306261   
O7       O      0.089400000000     0.983370000000     0.008080000000    -0.306721   
O8       O      0.971630000000     0.017270000000     0.934270000000    -0.306216   
O9       O      0.022290000000     0.100790000000     0.038580000000    -0.302271   
O10      O      0.025020000000     0.980200000000     0.938400000000    -0.307731   
O11      O      0.977860000000     0.094700000000     0.991350000000    -0.30666    
O12      O      0.908520000000     0.032320000000     0.004420000000    -0.307281   
O13      O      0.907020000000     0.986510000000     0.050750000000    -0.303528   
O14      O      0.017890000000     0.020770000000     0.527940000000    -0.368789   
O15      O      0.993230000000     0.931330000000     0.553880000000    -0.305443   
O16      O      0.041130000000     0.993360000000     0.439440000000    -0.302772   
O17      O      0.928420000000     0.039990000000     0.495090000000    -0.303584   
O18      O      0.043990000000     0.929170000000     0.512990000000    -0.304094   
O19      O      0.926250000000     0.996870000000     0.543810000000    -0.30855    
O20      O      0.005860000000     0.048440000000     0.437020000000    -0.303084   
O21      O      0.041560000000     0.111310000000     0.550630000000    -0.305017   
O22      O      0.109700000000     0.997850000000     0.506750000000    -0.302828   
O23      O      0.990510000000     0.111360000000     0.510050000000    -0.304468   
O24      O      0.108390000000     0.042560000000     0.554030000000    -0.30738    
O25      O      0.038470000000     0.043850000000     0.618420000000    -0.306433   
O26      O      0.986120000000     0.004930000000     0.617070000000    -0.305767   
O27      O      0.991480000000     0.508290000000     0.991380000000    -0.366918   
O28      O      0.013050000000     0.542950000000     0.904360000000    -0.305318   
O29      O      0.981890000000     0.417750000000     0.957930000000    -0.304297   
O30      O      0.082590000000     0.490720000000     0.014520000000    -0.306346   
O31      O      0.971840000000     0.492830000000     0.897870000000    -0.303156   
O32      O      0.080580000000     0.540840000000     0.972950000000    -0.306252   
O33      O      0.021850000000     0.418410000000     0.009340000000    -0.306409   
O34      O      0.966970000000     0.525520000000     0.083370000000    -0.30309    
O35      O      0.904770000000     0.474900000000     0.966190000000    -0.302891   
O36      O      0.015760000000     0.482460000000     0.081110000000    -0.305948   
O37      O      0.899160000000     0.517900000000     0.015030000000    -0.304072   
O38      O      0.957010000000     0.594840000000     0.018190000000    -0.303528   
O39      O      0.007700000000     0.602430000000     0.978150000000    -0.306432   
O40      O      0.017460000000     0.521960000000     0.489080000000    -0.367856   
O41      O      0.985290000000     0.432700000000     0.509960000000    -0.303453   
O42      O      0.038220000000     0.494430000000     0.399170000000    -0.303102   
O43      O      0.927830000000     0.546010000000     0.463990000000    -0.306412   
O44      O      0.037170000000     0.430000000000     0.470630000000    -0.305954   
O45      O      0.925670000000     0.508890000000     0.517480000000    -0.305882   
O46      O      0.995890000000     0.544060000000     0.398100000000    -0.304538   
O47      O      0.043620000000     0.612530000000     0.509810000000    -0.305588   
O48      O      0.107110000000     0.493490000000     0.466810000000    -0.306128   
O49      O      0.994510000000     0.613000000000     0.466910000000    -0.302892   
O50      O      0.109540000000     0.544710000000     0.507060000000    -0.30553    
O51      O      0.044990000000     0.543340000000     0.578950000000    -0.301761   
O52      O      0.997550000000     0.498550000000     0.579400000000    -0.305541   
O53      O      0.497710000000     0.991880000000     0.012370000000    -0.368315   
O54      O      0.404980000000     0.970630000000     0.994670000000    -0.301431   
O55      O      0.476700000000     0.002460000000     0.106120000000    -0.306492   
O56      O      0.525080000000     0.902450000000     0.029560000000    -0.306993   
O57      O      0.409840000000     0.016830000000     0.040510000000    -0.305982   
O58      O      0.473180000000     0.900680000000     0.990310000000    -0.30372    
O59      O      0.530040000000     0.965810000000     0.099400000000    -0.307463   
O60      O      0.585900000000     0.014540000000     0.978370000000    -0.302992   
O61      O      0.482050000000     0.079920000000     0.048370000000    -0.304969   
O62      O      0.590190000000     0.970130000000     0.025770000000    -0.30858    
O63      O      0.521690000000     0.083270000000     0.996730000000    -0.306457   
O64      O      0.507370000000     0.023920000000     0.922390000000    -0.303804   
O65      O      0.470010000000     0.970320000000     0.922550000000    -0.301812   
O66      O      0.520370000000     0.010650000000     0.512590000000    -0.368116   
O67      O      0.434020000000     0.041680000000     0.541270000000    -0.303363   
O68      O      0.487320000000     0.991650000000     0.423540000000    -0.305207   
O69      O      0.544820000000     0.097630000000     0.480060000000    -0.306822   
O70      O      0.427080000000     0.993440000000     0.497880000000    -0.30505    
O71      O      0.505710000000     0.104410000000     0.531680000000    -0.305047   
O72      O      0.543780000000     0.023870000000     0.420370000000    -0.307821   
O73      O      0.611140000000     0.984880000000     0.534680000000    -0.303722   
O74      O      0.491150000000     0.921820000000     0.489510000000    -0.303575   
O75      O      0.610650000000     0.029410000000     0.487110000000    -0.307716   
O76      O      0.540880000000     0.918550000000     0.531460000000    -0.305094   
O77      O      0.541650000000     0.983520000000     0.602250000000    -0.304145   
O78      O      0.507460000000     0.039160000000     0.604040000000    -0.303313   
O79      O      0.489800000000     0.491570000000     0.999800000000    -0.371135   
O80      O      0.403570000000     0.519000000000     0.969260000000    -0.306294   
O81      O      0.460900000000     0.403260000000     0.022440000000    -0.304482   
O82      O      0.504660000000     0.466440000000     0.907780000000    -0.304322   
O83      O      0.396650000000     0.474230000000     0.016130000000    -0.306009   
O84      O      0.477700000000     0.525750000000     0.910790000000    -0.305848   
O85      O      0.508900000000     0.400230000000     0.978430000000    -0.304578   
O86      O      0.581780000000     0.509960000000     0.019400000000    -0.303686   
O87      O      0.459670000000     0.471820000000     0.089420000000    -0.304945   
O88      O      0.577720000000     0.467720000000     0.969830000000    -0.304321   
O89      O      0.518030000000     0.500700000000     0.091080000000    -0.305403   
O90      O      0.514220000000     0.577740000000     0.034380000000    -0.304439   
O91      O      0.470250000000     0.584330000000     0.986770000000    -0.307829   
O92      O      0.515440000000     0.510630000000     0.498620000000    -0.370006   
O93      O      0.428030000000     0.482510000000     0.527380000000    -0.304986   
O94      O      0.493270000000     0.601400000000     0.476760000000    -0.305035   
O95      O      0.538400000000     0.534120000000     0.588820000000    -0.306299   
O96      O      0.423700000000     0.537500000000     0.492430000000    -0.306107   
O97      O      0.502160000000     0.479880000000     0.588820000000    -0.303713   
O98      O      0.542620000000     0.600830000000     0.519270000000    -0.30456    
O99      O      0.604530000000     0.493880000000     0.467500000000    -0.307108   
O100     O      0.477980000000     0.531840000000     0.412170000000    -0.304033   
O101     O      0.606680000000     0.528500000000     0.522750000000    -0.304902   
O102     O      0.532130000000     0.496150000000     0.405370000000    -0.307035   
O103     O      0.541100000000     0.422780000000     0.467750000000    -0.304392   
O104     O      0.498090000000     0.417970000000     0.516400000000    -0.306616   
S1       S      0.436640000000     0.537900000000     0.816400000000    -0.0198658  
S2       S      0.543240000000     0.443010000000     0.182990000000    -0.0266051  
S3       S      0.447220000000     0.828940000000     0.510910000000    -0.0207999  
S4       S      0.526420000000     0.331280000000     0.558570000000    -0.0207717  
S5       S      0.566790000000     0.808340000000     0.996920000000    -0.0213767  
S6       S      0.491410000000     0.301540000000     0.941120000000    -0.0223606  
S7       S      0.447290000000     0.059710000000     0.832700000000    -0.025521   
S8       S      0.534280000000     0.912200000000     0.187950000000    -0.0218382  
S9       S      0.837250000000     0.595290000000     0.463820000000    -0.0205948  
S10      S      0.336610000000     0.566200000000     0.559560000000    -0.0252527  
S11      S      0.671610000000     0.556910000000     0.997190000000    -0.0212776  
S12      S      0.174270000000     0.511510000000     0.061980000000    -0.0227874  
S13      S      0.091410000000     0.511520000000     0.670140000000    -0.02263    
S14      S      0.993770000000     0.573870000000     0.167720000000    -0.0197592  
S15      S      0.990230000000     0.711110000000     0.432170000000    -0.018833   
S16      S      0.036260000000     0.332580000000     0.433330000000    -0.021015   
S17      S      0.699440000000     0.005390000000     0.441100000000    -0.0215383  
S18      S      0.199840000000     0.952050000000     0.528100000000    -0.0213599  
S19      S      0.909900000000     0.689010000000     0.993220000000    -0.0218445  
S20      S      0.005100000000     0.199690000000     0.067140000000    -0.0214487  
S21      S      0.677170000000     0.985430000000     0.927730000000    -0.0220611  
S22      S      0.178760000000     0.075140000000     0.025730000000    -0.0202774  
S23      S      0.942550000000     0.957170000000     0.842390000000    -0.0260278  
S24      S      0.087710000000     0.989140000000     0.346870000000    -0.0199735  
Zn1      Zn     0.965090000000     0.976160000000     0.060960000000     0.44947    
Zn2      Zn     0.030660000000     0.044690000000     0.057300000000     0.445591   
Zn3      Zn     0.032680000000     0.972940000000     0.996460000000     0.452658   
Zn4      Zn     0.965250000000     0.036900000000     0.990040000000     0.452803   
Zn5      Zn     0.982090000000     0.989430000000     0.559900000000     0.452979   
Zn6      Zn     0.051980000000     0.986090000000     0.497470000000     0.449282   
Zn7      Zn     0.986520000000     0.054320000000     0.493300000000     0.44636    
Zn8      Zn     0.050960000000     0.053530000000     0.561400000000     0.452186   
Zn9      Zn     0.022550000000     0.547290000000     0.962680000000     0.451551   
Zn10     Zn     0.963230000000     0.474390000000     0.954140000000     0.445525   
Zn11     Zn     0.026300000000     0.475720000000     0.023290000000     0.453535   
Zn12     Zn     0.954530000000     0.535840000000     0.025900000000     0.449571   
Zn13     Zn     0.982230000000     0.491290000000     0.522740000000     0.448116   
Zn14     Zn     0.049170000000     0.486170000000     0.457310000000     0.451446   
Zn15     Zn     0.985280000000     0.555300000000     0.455290000000     0.452458   
Zn16     Zn     0.052750000000     0.554820000000     0.520570000000     0.448538   
Zn17     Zn     0.462310000000     0.958860000000     0.980870000000     0.444586   
Zn18     Zn     0.467550000000     0.022100000000     0.050710000000     0.450809   
Zn19     Zn     0.534760000000     0.959260000000     0.040980000000     0.457928   
Zn20     Zn     0.527300000000     0.027330000000     0.978200000000     0.449282   
Zn21     Zn     0.493080000000     0.048140000000     0.546760000000     0.447062   
Zn22     Zn     0.482400000000     0.980290000000     0.481880000000     0.450016   
Zn23     Zn     0.553920000000     0.039280000000     0.476270000000     0.455743   
Zn24     Zn     0.552760000000     0.975310000000     0.544360000000     0.447873   
Zn25     Zn     0.461720000000     0.529290000000     0.967510000000     0.45549    
Zn26     Zn     0.452440000000     0.461510000000     0.031200000000     0.451387   
Zn27     Zn     0.519310000000     0.457090000000     0.964870000000     0.450025   
Zn28     Zn     0.525390000000     0.519050000000     0.035110000000     0.451191   
Zn29     Zn     0.486630000000     0.473670000000     0.531610000000     0.452334   
Zn30     Zn     0.478370000000     0.544220000000     0.470740000000     0.449727   
Zn31     Zn     0.549600000000     0.542900000000     0.531460000000     0.450844   
Zn32     Zn     0.547260000000     0.481900000000     0.460660000000     0.451816   


