data_structure

_audit_creation_method RASPA-1.0
_audit_creation_date 2023-5-25
_audit_author_name 'Poobodin Mano'

_cell_length_a    33.9497
_cell_length_b    33.8626
_cell_length_c    34.1293
_cell_angle_alpha 90
_cell_angle_beta  90
_cell_angle_gamma 90
_cell_volume      39235.9

_symmetry_cell_setting          triclinic
_symmetry_space_group_name_Hall 'P 1'
_symmetry_space_group_name_H-M  'P 1'
_symmetry_Int_Tables_number     1

_symmetry_equiv_pos_as_xyz 'x,y,z'

loop_
_atom_site_label
_atom_site_type_symbol
_atom_site_fract_x
_atom_site_fract_y
_atom_site_fract_z
_atom_site_charge
C1       C      0.003050000000     0.001580000000     0.096130000000     0.366511   
C2       C      0.002080000000     0.114270000000     0.991070000000     0.364482   
C3       C      0.115280000000     0.009300000000     0.990560000000     0.363192   
C4       C      0.011630000000     0.009000000000     0.878120000000     0.365127   
C5       C      0.898670000000     0.997520000000     0.984950000000     0.363797   
C6       C      0.012460000000     0.895400000000     0.982800000000     0.364051   
C7       C      0.909130000000     0.002420000000     0.475480000000     0.36307    
C8       C      0.026260000000     0.002060000000     0.378330000000     0.367104   
C9       C      0.015380000000     0.113540000000     0.487820000000     0.366565   
C10      C      0.126170000000     0.003470000000     0.490030000000     0.364159   
C11      C      0.017900000000     0.893500000000     0.490800000000     0.367407   
C12      C      0.009140000000     0.004760000000     0.594940000000     0.366204   
C13      C      0.102930000000     0.511030000000     0.018770000000     0.364573   
C14      C      0.002030000000     0.393270000000     0.012690000000     0.363083   
C15      C      0.990060000000     0.502360000000     0.123310000000     0.364936   
C16      C      0.886780000000     0.494410000000     0.010730000000     0.364273   
C17      C      0.999800000000     0.503850000000     0.905080000000     0.365244   
C18      C      0.986970000000     0.611900000000     0.014430000000     0.36503    
C19      C      0.012140000000     0.393800000000     0.509490000000     0.364708   
C20      C      0.017870000000     0.506760000000     0.404970000000     0.365482   
C21      C      0.898090000000     0.500270000000     0.503580000000     0.360868   
C22      C      0.004490000000     0.613670000000     0.513670000000     0.364837   
C23      C      0.114740000000     0.505870000000     0.527620000000     0.362084   
C24      C      0.992260000000     0.502170000000     0.621050000000     0.363103   
C25      C      0.398510000000     0.995600000000     0.989890000000     0.367046   
C26      C      0.501590000000     0.007780000000     0.103300000000     0.365413   
C27      C      0.518070000000     0.901950000000     0.990160000000     0.363797   
C28      C      0.615450000000     0.019560000000     0.996810000000     0.363281   
C29      C      0.495220000000     0.118920000000     0.998450000000     0.364351   
C30      C      0.509970000000     0.017940000000     0.884870000000     0.367352   
C31      C      0.411430000000     0.028430000000     0.509170000000     0.364002   
C32      C      0.506850000000     0.906040000000     0.494050000000     0.36353    
C33      C      0.511720000000     0.018020000000     0.387550000000     0.362739   
C34      C      0.627940000000     0.004770000000     0.486120000000     0.365401   
C35      C      0.532160000000     0.010180000000     0.603790000000     0.364366   
C36      C      0.528540000000     0.124730000000     0.497920000000     0.364673   
C37      C      0.603620000000     0.521210000000     0.018460000000     0.364594   
C38      C      0.486530000000     0.619580000000     0.025030000000     0.362414   
C39      C      0.492080000000     0.507720000000     0.914800000000     0.364789   
C40      C      0.386950000000     0.499550000000     0.023140000000     0.364973   
C41      C      0.496040000000     0.513840000000     0.133940000000     0.365194   
C42      C      0.506950000000     0.402500000000     0.030590000000     0.363679   
C43      C      0.399950000000     0.519320000000     0.525460000000     0.364554   
C44      C      0.515760000000     0.525950000000     0.630570000000     0.362707   
C45      C      0.507140000000     0.408660000000     0.528960000000     0.36336    
C46      C      0.618880000000     0.514830000000     0.515640000000     0.364298   
C47      C      0.509510000000     0.627820000000     0.516200000000     0.36503    
C48      C      0.505690000000     0.513450000000     0.413180000000     0.366792   
C49      C      0.493520000000     0.556800000000     0.692780000000     0.00953788 
C50      C      0.510000000000     0.473440000000     0.853130000000     0.00958898 
C51      C      0.466090000000     0.533810000000     0.851890000000     0.0304961  
C52      C      0.532920000000     0.488580000000     0.817450000000    -0.10105    
C53      C      0.476010000000     0.535380000000     0.728140000000    -0.100889   
C54      C      0.489460000000     0.549930000000     0.816870000000    -0.104727   
C55      C      0.508190000000     0.516140000000     0.752700000000     0.0197528  
C56      C      0.508280000000     0.516910000000     0.793000000000     0.0236914  
C57      C      0.551300000000     0.510700000000     0.692310000000     0.00887922 
C58      C      0.536100000000     0.489910000000     0.729300000000    -0.100351   
C59      C      0.429920000000     0.514070000000     0.838330000000     0.0457606  
C60      C      0.467160000000     0.490990000000     0.196690000000     0.00819574 
C61      C      0.532140000000     0.536420000000     0.349480000000     0.00928718 
C62      C      0.479000000000     0.482910000000     0.352640000000     0.029392   
C63      C      0.511470000000     0.553920000000     0.313640000000    -0.102241   
C64      C      0.486580000000     0.473210000000     0.233150000000    -0.101955   
C65      C      0.460510000000     0.500840000000     0.315470000000    -0.105395   
C66      C      0.506220000000     0.506060000000     0.256120000000     0.0248754  
C67      C      0.492160000000     0.520710000000     0.291000000000     0.0251095  
C68      C      0.520070000000     0.544210000000     0.195620000000     0.00829686 
C69      C      0.538480000000     0.525480000000     0.232150000000    -0.102247   
C70      C      0.502120000000     0.447550000000     0.342570000000     0.0486899  
C71      C      0.478620000000     0.846340000000     0.524610000000     0.00855754 
C72      C      0.531100000000     0.688430000000     0.481930000000     0.00901366 
C73      C      0.479670000000     0.691090000000     0.537070000000     0.0290506  
C74      C      0.546310000000     0.728760000000     0.495350000000    -0.102096   
C75      C      0.461180000000     0.807130000000     0.510510000000    -0.102999   
C76      C      0.495840000000     0.732000000000     0.548240000000    -0.105016   
C77      C      0.493930000000     0.782640000000     0.492930000000     0.0264831  
C78      C      0.512260000000     0.752060000000     0.512110000000     0.0247604  
C79      C      0.529380000000     0.841520000000     0.468950000000     0.00810919 
C80      C      0.510220000000     0.802490000000     0.456760000000    -0.10275    
C81      C      0.442480000000     0.695230000000     0.515230000000     0.0489378  
C82      C      0.479800000000     0.344740000000     0.506080000000     0.0102254  
C83      C      0.563810000000     0.185410000000     0.518950000000     0.00913703 
C84      C      0.502920000000     0.189670000000     0.476060000000     0.0306897  
C85      C      0.549510000000     0.220870000000     0.543270000000    -0.101293   
C86      C      0.503510000000     0.311540000000     0.487210000000    -0.101792   
C87      C      0.487370000000     0.223240000000     0.501810000000    -0.104909   
C88      C      0.523450000000     0.286850000000     0.518660000000     0.0213484  
C89      C      0.521050000000     0.246410000000     0.520010000000     0.0241781  
C90      C      0.527190000000     0.346750000000     0.562680000000     0.0085963  
C91      C      0.549430000000     0.310800000000     0.546190000000    -0.101067   
C92      C      0.522120000000     0.205600000000     0.440730000000     0.046092   
C93      C      0.508350000000     0.683820000000     0.052500000000     0.0096628  
C94      C      0.503930000000     0.838360000000     0.956800000000     0.0106512  
C95      C      0.544460000000     0.839900000000     0.018830000000     0.0312583  
C96      C      0.478930000000     0.804210000000     0.972710000000    -0.102175   
C97      C      0.529030000000     0.715870000000     0.028780000000    -0.100556   
C98      C      0.519240000000     0.806470000000     0.035920000000    -0.10567    
C99      C      0.499090000000     0.740420000000     0.006210000000     0.0200767  
C100     C      0.500990000000     0.780900000000     0.003910000000     0.0254519  
C101     C      0.453010000000     0.681380000000     0.004020000000     0.00882841 
C102     C      0.470930000000     0.716080000000     0.981060000000    -0.100414   
C103     C      0.580870000000     0.823870000000     0.001560000000     0.0456925  
C104     C      0.492980000000     0.340010000000     0.066020000000     0.00912882 
C105     C      0.518930000000     0.184970000000     0.977830000000     0.0100258  
C106     C      0.458420000000     0.178310000000     0.020740000000     0.0295141  
C107     C      0.535060000000     0.216960000000     0.004800000000    -0.101189   
C108     C      0.472070000000     0.303140000000     0.050150000000    -0.100935   
C109     C      0.472620000000     0.213610000000     0.045740000000    -0.104772   
C110     C      0.498670000000     0.280140000000     0.022430000000     0.0213041  
C111     C      0.501310000000     0.239720000000     0.023210000000     0.0236428  
C112     C      0.539240000000     0.340480000000     0.008690000000     0.0102432  
C113     C      0.517690000000     0.305300000000     0.990650000000    -0.101588   
C114     C      0.428730000000     0.191480000000     0.992090000000     0.0470443  
C115     C      0.569780000000     0.027380000000     0.663830000000     0.00840132 
C116     C      0.490540000000     0.992690000000     0.819440000000     0.010597   
C117     C      0.530860000000     0.055510000000     0.825930000000     0.0292191  
C118     C      0.518380000000     0.978270000000     0.787420000000    -0.101716   
C119     C      0.555520000000     0.047010000000     0.701920000000    -0.100911   
C120     C      0.557030000000     0.042180000000     0.791390000000    -0.104992   
C121     C      0.530200000000     0.018820000000     0.725780000000     0.0213793  
C122     C      0.534990000000     0.013330000000     0.765260000000     0.0234624  
C123     C      0.513700000000     0.978840000000     0.666810000000     0.00983146 
C124     C      0.497040000000     0.999890000000     0.702610000000    -0.10087    
C125     C      0.500910000000     0.083830000000     0.812260000000     0.0462803  
C126     C      0.536000000000     0.994410000000     0.323250000000     0.00985675 
C127     C      0.464750000000     0.025460000000     0.163380000000     0.00917635 
C128     C      0.525830000000     0.982190000000     0.167030000000     0.0305856  
C129     C      0.476980000000     0.046870000000     0.201060000000    -0.101862   
C130     C      0.513410000000     0.979380000000     0.287600000000    -0.101887   
C131     C      0.538300000000     0.004250000000     0.204290000000    -0.105275   
C132     C      0.496040000000     0.013880000000     0.265200000000     0.022      
C133     C      0.502770000000     0.020420000000     0.226110000000     0.0245301  
C134     C      0.489840000000     0.052900000000     0.327570000000     0.00812114 
C135     C      0.468900000000     0.039340000000     0.289990000000    -0.101511   
C136     C      0.506770000000     0.944510000000     0.177230000000     0.047175   
C137     C      0.837080000000     0.530170000000     0.477440000000     0.00775302 
C138     C      0.681450000000     0.482530000000     0.534660000000     0.00889747 
C139     C      0.679690000000     0.535840000000     0.481360000000     0.0288803  
C140     C      0.721620000000     0.498330000000     0.547670000000    -0.101667   
C141     C      0.797850000000     0.514780000000     0.461250000000    -0.102228   
C142     C      0.720650000000     0.549510000000     0.495110000000    -0.104817   
C143     C      0.774500000000     0.496810000000     0.494540000000     0.0253331  
C144     C      0.742970000000     0.514860000000     0.512360000000     0.0240782  
C145     C      0.834710000000     0.475360000000     0.529220000000     0.00805884 
C146     C      0.795840000000     0.461410000000     0.511210000000    -0.102478   
C147     C      0.683210000000     0.512020000000     0.445420000000     0.0485319  
C148     C      0.180380000000     0.479810000000     0.509260000000     0.00995921 
C149     C      0.338590000000     0.552320000000     0.547240000000     0.00862649 
C150     C      0.336300000000     0.493180000000     0.501160000000     0.0303091  
C151     C      0.301240000000     0.537600000000     0.568070000000    -0.10169    
C152     C      0.217080000000     0.502600000000     0.497000000000    -0.10227    
C153     C      0.300110000000     0.478040000000     0.523400000000    -0.105058   
C154     C      0.237800000000     0.518720000000     0.532960000000     0.0225612  
C155     C      0.276890000000     0.512120000000     0.540700000000     0.0243973  
C156     C      0.172640000000     0.524380000000     0.568070000000     0.0083096  
C157     C      0.211730000000     0.545070000000     0.558030000000    -0.101714   
C158     C      0.324260000000     0.513450000000     0.464920000000     0.0479857  
C159     C      0.666440000000     0.543010000000     0.048090000000     0.00988957 
C160     C      0.823950000000     0.498680000000     0.974010000000     0.0107614  
C161     C      0.825160000000     0.476900000000     0.045170000000     0.031001   
C162     C      0.788500000000     0.525190000000     0.982190000000    -0.102063   
C163     C      0.702660000000     0.517240000000     0.056070000000    -0.101165   
C164     C      0.790050000000     0.504200000000     0.054200000000    -0.105871   
C165     C      0.725480000000     0.510760000000     0.018430000000     0.0205138  
C166     C      0.765590000000     0.510940000000     0.017640000000     0.0248386  
C167     C      0.664180000000     0.520120000000     0.977970000000     0.00978457 
C168     C      0.701430000000     0.495540000000     0.984070000000    -0.100852   
C169     C      0.811690000000     0.436030000000     0.038830000000     0.0469338  
C170     C      0.326010000000     0.476300000000     0.055380000000     0.00987931 
C171     C      0.166700000000     0.510120000000     0.983880000000     0.0104173  
C172     C      0.162840000000     0.528970000000     0.055900000000     0.0307953  
C173     C      0.203530000000     0.485620000000     0.991820000000    -0.102214   
C174     C      0.288970000000     0.500320000000     0.065070000000    -0.101823   
C175     C      0.199940000000     0.504120000000     0.064300000000    -0.106096   
C176     C      0.264750000000     0.506070000000     0.028250000000     0.0217678  
C177     C      0.225010000000     0.500720000000     0.027710000000     0.0251531  
C178     C      0.324630000000     0.500630000000     0.985510000000     0.00943689 
C179     C      0.286860000000     0.523650000000     0.993780000000    -0.101417   
C180     C      0.173120000000     0.571050000000     0.051830000000     0.0493635  
C181     C      0.970230000000     0.467110000000     0.680680000000     0.00980203 
C182     C      0.992670000000     0.540250000000     0.842600000000     0.0101639  
C183     C      0.020270000000     0.470440000000     0.844020000000     0.0307987  
C184     C      0.969480000000     0.530440000000     0.805480000000    -0.1016     
C185     C      0.992700000000     0.460140000000     0.719030000000    -0.10125    
C186     C      0.996160000000     0.460020000000     0.807210000000    -0.105846   
C187     C      0.993020000000     0.497540000000     0.743410000000     0.0203289  
C188     C      0.988450000000     0.496780000000     0.783100000000     0.0241872  
C189     C      0.986410000000     0.539720000000     0.682980000000     0.00939094 
C190     C      0.007400000000     0.534230000000     0.722230000000    -0.100653   
C191     C      0.061290000000     0.479860000000     0.833430000000     0.0478757  
C192     C      0.977040000000     0.466780000000     0.185300000000     0.00943868 
C193     C      0.011200000000     0.543250000000     0.342480000000     0.0110059  
C194     C      0.040730000000     0.474410000000     0.344070000000     0.030797   
C195     C      0.986660000000     0.532310000000     0.306630000000    -0.10189    
C196     C      0.005010000000     0.461090000000     0.220200000000    -0.101158   
C197     C      0.015990000000     0.462720000000     0.308000000000    -0.105676   
C198     C      0.007130000000     0.498830000000     0.243980000000     0.0208185  
C199     C      0.005640000000     0.498880000000     0.283880000000     0.0247636  
C200     C      0.990090000000     0.540100000000     0.185390000000     0.00952126 
C201     C      0.017290000000     0.535630000000     0.220730000000    -0.100844   
C202     C      0.081050000000     0.485300000000     0.332260000000     0.0480366  
C203     C      0.027570000000     0.677280000000     0.541580000000     0.00856652 
C204     C      0.993360000000     0.829230000000     0.465970000000     0.0091166  
C205     C      0.044120000000     0.832460000000     0.521290000000     0.0293298  
C206     C      0.972980000000     0.795200000000     0.487440000000    -0.101784   
C207     C      0.048040000000     0.712070000000     0.521330000000    -0.10244    
C208     C      0.023060000000     0.797450000000     0.540930000000    -0.104952   
C209     C      0.017520000000     0.735500000000     0.498650000000     0.0254455  
C210     C      0.003740000000     0.771960000000     0.509860000000     0.0242118  
C211     C      0.977240000000     0.675860000000     0.486470000000     0.00874015 
C212     C      0.998720000000     0.710410000000     0.466980000000    -0.102817   
C213     C      0.079650000000     0.818800000000     0.500590000000     0.0487888  
C214     C      0.987060000000     0.328210000000     0.530150000000     0.00836749 
C215     C      0.041550000000     0.177580000000     0.464160000000     0.00895522 
C216     C      0.983830000000     0.174710000000     0.512320000000     0.0291725  
C217     C      0.057510000000     0.213610000000     0.486190000000    -0.101684   
C218     C      0.973700000000     0.292940000000     0.505390000000    -0.102115   
C219     C      0.000970000000     0.211180000000     0.532960000000    -0.104475   
C220     C      0.009800000000     0.271880000000     0.489640000000     0.0245143  
C221     C      0.023210000000     0.236270000000     0.503590000000     0.0236056  
C222     C      0.047800000000     0.334140000000     0.486880000000     0.00815634 
C223     C      0.033390000000     0.298700000000     0.462950000000    -0.102387   
C224     C      0.950960000000     0.186170000000     0.486560000000     0.046254   
C225     C      0.849780000000     0.982160000000     0.438080000000     0.00830708 
C226     C      0.694830000000     0.026340000000     0.505540000000     0.0101201  
C227     C      0.685080000000     0.967570000000     0.459730000000     0.0289325  
C228     C      0.729090000000     0.039990000000     0.480020000000    -0.102091   
C229     C      0.810770000000     0.962720000000     0.450560000000    -0.102048   
C230     C      0.722030000000     0.980420000000     0.436600000000    -0.105044   
C231     C      0.786070000000     0.991790000000     0.473850000000     0.02418    
C232     C      0.749300000000     0.004180000000     0.462760000000     0.0236538  
C233     C      0.844490000000     0.029910000000     0.495050000000     0.00935386 
C234     C      0.807740000000     0.008230000000     0.509010000000    -0.102274   
C235     C      0.694930000000     0.934830000000     0.486410000000     0.0466362  
C236     C      0.350730000000     0.066880000000     0.495800000000     0.0107376  
C237     C      0.188690000000     0.973770000000     0.513300000000     0.00991307 
C238     C      0.188650000000     0.022230000000     0.457510000000     0.0305006  
C239     C      0.225170000000     0.993140000000     0.531440000000    -0.099633   
C240     C      0.311580000000     0.051460000000     0.479780000000    -0.0993817  
C241     C      0.224680000000     0.043640000000     0.474410000000    -0.104029   
C242     C      0.288620000000     0.025100000000     0.508160000000     0.0188838  
C243     C      0.248800000000     0.018590000000     0.502870000000     0.0233137  
C244     C      0.351600000000     0.017580000000     0.549500000000     0.0101391  
C245     C      0.312390000000     0.999510000000     0.536540000000    -0.0990186  
C246     C      0.200790000000     0.993720000000     0.427160000000     0.0488362  
C247     C      0.039460000000     0.832070000000     0.007760000000     0.0103126  
C248     C      0.952800000000     0.673230000000     0.993610000000     0.00915841 
C249     C      0.011840000000     0.676190000000     0.038900000000     0.0307501  
C250     C      0.968550000000     0.708570000000     0.970130000000    -0.101248   
C251     C      0.014950000000     0.799160000000     0.026250000000    -0.101177   
C252     C      0.028990000000     0.709870000000     0.014310000000    -0.10472    
C253     C      0.995600000000     0.774130000000     0.994590000000     0.0209884  
C254     C      0.996590000000     0.733600000000     0.994500000000     0.0242981  
C255     C      0.994780000000     0.832860000000     0.949130000000     0.00910465 
C256     C      0.971170000000     0.797900000000     0.965530000000    -0.101109   
C257     C      0.991150000000     0.691960000000     0.073470000000     0.0469601  
C258     C      0.031180000000     0.332910000000     0.984020000000     0.00760479 
C259     C      0.973880000000     0.174670000000     0.020670000000     0.00888457 
C260     C      0.032320000000     0.178150000000     0.972910000000     0.0289097  
C261     C      0.959530000000     0.214350000000     0.004560000000    -0.101443   
C262     C      0.045500000000     0.293360000000     0.000500000000    -0.101912   
C263     C      0.016460000000     0.218210000000     0.958750000000    -0.10463    
C264     C      0.010050000000     0.269440000000     0.013090000000     0.0259373  
C265     C      0.994920000000     0.238380000000     0.992020000000     0.0236216  
C266     C      0.972430000000     0.329200000000     0.030990000000     0.00777785 
C267     C      0.988500000000     0.289820000000     0.046160000000    -0.102562   
C268     C      0.066070000000     0.184010000000     0.999380000000     0.0480987  
C269     C      0.679420000000     0.011700000000     0.031000000000     0.0100451  
C270     C      0.836570000000     0.980860000000     0.950900000000     0.0105882  
C271     C      0.837290000000     0.995880000000     0.023840000000     0.0309077  
C272     C      0.799130000000     0.005770000000     0.945730000000    -0.102425   
C273     C      0.714110000000     0.985570000000     0.019110000000    -0.101389   
C274     C      0.799080000000     0.019500000000     0.019390000000    -0.104803   
C275     C      0.735930000000     0.003140000000     0.984440000000     0.0205034  
C276     C      0.775900000000     0.006660000000     0.983610000000     0.0242571  
C277     C      0.676460000000     0.040050000000     0.962700000000     0.00940038 
C278     C      0.710340000000     0.013140000000     0.949480000000    -0.101821   
C279     C      0.828460000000     0.955850000000     0.038220000000     0.0442064  
C280     C      0.178080000000     0.001510000000     0.026760000000     0.00939795 
C281     C      0.339080000000     0.973060000000     0.954590000000     0.0112729  
C282     C      0.335890000000     0.991420000000     0.026670000000     0.0315293  
C283     C      0.300670000000     0.995530000000     0.946690000000    -0.102731   
C284     C      0.213010000000     0.974830000000     0.016960000000    -0.101      
C285     C      0.296410000000     0.012200000000     0.019700000000    -0.105682   
C286     C      0.235980000000     0.991190000000     0.982490000000     0.0202696  
C287     C      0.275710000000     0.996650000000     0.983440000000     0.0255483  
C288     C      0.177490000000     0.027070000000     0.957210000000     0.00870479 
C289     C      0.211600000000     0.999460000000     0.946270000000    -0.100883   
C290     C      0.329100000000     0.951570000000     0.042580000000     0.0449321  
C291     C      0.013290000000     0.972560000000     0.815550000000     0.00993738 
C292     C      0.985420000000     0.038790000000     0.654300000000     0.0105972  
C293     C      0.014720000000     0.969700000000     0.658280000000     0.0304103  
C294     C      0.007590000000     0.050990000000     0.691460000000    -0.102426   
C295     C      0.991110000000     0.978270000000     0.777070000000    -0.101693   
C296     C      0.034670000000     0.980940000000     0.697040000000    -0.104682   
C297     C      0.005270000000     0.014960000000     0.755930000000     0.0205985  
C298     C      0.013840000000     0.015060000000     0.716980000000     0.0237843  
C299     C      0.028350000000     0.045730000000     0.817940000000     0.00976648 
C300     C      0.004740000000     0.052340000000     0.780210000000    -0.101717   
C301     C      0.978420000000     0.947260000000     0.666160000000     0.0430741  
C302     C      0.010100000000     0.964160000000     0.158090000000     0.0101958  
C303     C      0.043650000000     0.037050000000     0.317230000000     0.0106057  
C304     C      0.026460000000     0.964080000000     0.316270000000     0.0304429  
C305     C      0.017890000000     0.044300000000     0.281100000000    -0.102222   
C306     C      0.035660000000     0.973430000000     0.193750000000    -0.101598   
C307     C      0.002530000000     0.970420000000     0.278680000000    -0.104651   
C308     C      0.018770000000     0.007740000000     0.216880000000     0.0209014  
C309     C      0.015680000000     0.007070000000     0.256660000000     0.0243996  
C310     C      0.983910000000     0.033910000000     0.158220000000     0.00975058 
C311     C      0.010350000000     0.044540000000     0.193080000000    -0.101707   
C312     C      0.065800000000     0.948630000000     0.306530000000     0.0473946  
H1       H      0.456700000000     0.556220000000     0.743790000000     0.0493993  
H2       H      0.487050000000     0.452490000000     0.842670000000     0.0379305  
H3       H      0.572650000000     0.533880000000     0.701420000000     0.0316118  
H4       H      0.562910000000     0.481870000000     0.746030000000     0.0453375  
H5       H      0.541670000000     0.461710000000     0.801090000000     0.0463656  
H6       H      0.470820000000     0.570780000000     0.800370000000     0.0496933  
H7       H      0.469020000000     0.568930000000     0.674850000000     0.0427407  
H8       H      0.530550000000     0.456210000000     0.871850000000     0.0427682  
H9       H      0.520440000000     0.462330000000     0.720980000000     0.0552645  
H10      H      0.513830000000     0.568450000000     0.828550000000     0.0552938  
H11      H      0.567780000000     0.488880000000     0.674340000000     0.0419866  
H12      H      0.456260000000     0.511580000000     0.717310000000     0.0596723  
H13      H      0.560080000000     0.503960000000     0.827340000000     0.0533826  
H14      H      0.456850000000     0.559570000000     0.869880000000     0.040807   
H15      H      0.511390000000     0.582140000000     0.703490000000     0.0322047  
H16      H      0.464990000000     0.455260000000     0.249410000000     0.0509109  
H17      H      0.557020000000     0.517630000000     0.339380000000     0.0402466  
H18      H      0.501150000000     0.569340000000     0.204910000000     0.0344199  
H19      H      0.556710000000     0.547350000000     0.247740000000     0.0480257  
H20      H      0.532070000000     0.572580000000     0.296880000000     0.0476954  
H21      H      0.442200000000     0.478770000000     0.300170000000     0.0513727  
H22      H      0.454530000000     0.466480000000     0.179040000000     0.0436561  
H23      H      0.544980000000     0.561140000000     0.366660000000     0.0448174  
H24      H      0.559650000000     0.502360000000     0.222540000000     0.0574219  
H25      H      0.439040000000     0.523820000000     0.324780000000     0.0578708  
H26      H      0.544150000000     0.556470000000     0.177210000000     0.0430147  
H27      H      0.509510000000     0.451840000000     0.223530000000     0.0592492  
H28      H      0.488270000000     0.574650000000     0.323960000000     0.0568548  
H29      H      0.454370000000     0.473040000000     0.371740000000     0.0435564  
H30      H      0.442270000000     0.510100000000     0.206160000000     0.0346097  
H31      H      0.444380000000     0.792840000000     0.534260000000     0.0510655  
H32      H      0.511690000000     0.692700000000     0.456020000000     0.0385069  
H33      H      0.556850000000     0.834980000000     0.485490000000     0.0364691  
H34      H      0.530860000000     0.784490000000     0.439270000000     0.0481589  
H35      H      0.562650000000     0.743370000000     0.471450000000     0.0474388  
H36      H      0.473760000000     0.749070000000     0.564900000000     0.0497305  
H37      H      0.453900000000     0.865620000000     0.534190000000     0.0429029  
H38      H      0.556790000000     0.670630000000     0.472120000000     0.0429124  
H39      H      0.485560000000     0.809130000000     0.436320000000     0.0571582  
H40      H      0.520340000000     0.727660000000     0.569460000000     0.0542288  
H41      H      0.538080000000     0.857600000000     0.441890000000     0.0437472  
H42      H      0.438870000000     0.813500000000     0.487490000000     0.0589955  
H43      H      0.568620000000     0.724020000000     0.518750000000     0.0547401  
H44      H      0.472650000000     0.675480000000     0.564880000000     0.0410261  
H45      H      0.497310000000     0.840640000000     0.550780000000     0.0350834  
H46      H      0.484630000000     0.295210000000     0.466490000000     0.0519893  
H47      H      0.584990000000     0.196420000000     0.496600000000     0.0380909  
H48      H      0.505450000000     0.335940000000     0.584590000000     0.0323816  
H49      H      0.559330000000     0.293750000000     0.572070000000     0.0460162  
H50      H      0.576510000000     0.236900000000     0.552180000000     0.0467175  
H51      H      0.465320000000     0.240770000000     0.485580000000     0.04988    
H52      H      0.465950000000     0.362600000000     0.482490000000     0.0446733  
H53      H      0.580490000000     0.165270000000     0.538580000000     0.0427053  
H54      H      0.575930000000     0.320960000000     0.529930000000     0.0563308  
H55      H      0.470320000000     0.209800000000     0.526240000000     0.0559684  
H56      H      0.548500000000     0.365820000000     0.578580000000     0.0425204  
H57      H      0.526930000000     0.324980000000     0.468720000000     0.0630934  
H58      H      0.534500000000     0.210130000000     0.570170000000     0.0538364  
H59      H      0.476980000000     0.172340000000     0.466110000000     0.0412419  
H60      H      0.455740000000     0.331500000000     0.523900000000     0.0324623  
H61      H      0.548700000000     0.732380000000     0.048550000000     0.0502953  
H62      H      0.527920000000     0.825670000000     0.938510000000     0.0369014  
H63      H      0.431020000000     0.693470000000     0.025010000000     0.03445    
H64      H      0.445450000000     0.733590000000     0.970540000000     0.0470316  
H65      H      0.471340000000     0.786020000000     0.946780000000     0.0473158  
H66      H      0.536420000000     0.790710000000     0.058450000000     0.0521216  
H67      H      0.530980000000     0.666050000000     0.068080000000     0.0436929  
H68      H      0.485320000000     0.856490000000     0.936970000000     0.0432915  
H69      H      0.487180000000     0.704620000000     0.955180000000     0.0549553  
H70      H      0.494500000000     0.820190000000     0.052400000000     0.0604175  
H71      H      0.436860000000     0.662010000000     0.983220000000     0.0432531  
H72      H      0.548800000000     0.701420000000     0.007130000000     0.0600235  
H73      H      0.451230000000     0.816010000000     0.985520000000     0.0576249  
H74      H      0.553370000000     0.859280000000     0.043570000000     0.0433907  
H75      H      0.489580000000     0.698240000000     0.075070000000     0.0339684  
H76      H      0.463550000000     0.285870000000     0.076390000000     0.047207   
H77      H      0.502960000000     0.199330000000     0.953190000000     0.0390484  
H78      H      0.564340000000     0.329240000000     0.026430000000     0.0327638  
H79      H      0.537980000000     0.289660000000     0.970760000000     0.0476954  
H80      H      0.557010000000     0.234840000000     0.988890000000     0.0468557  
H81      H      0.445960000000     0.229470000000     0.055970000000     0.0510968  
H82      H      0.471360000000     0.357880000000     0.082850000000     0.043516   
H83      H      0.544190000000     0.168570000000     0.965040000000     0.043795   
H84      H      0.493790000000     0.316750000000     0.971480000000     0.059496   
H85      H      0.487910000000     0.202190000000     0.072220000000     0.0543008  
H86      H      0.551510000000     0.358940000000     0.984700000000     0.0423202  
H87      H      0.444860000000     0.311960000000     0.034290000000     0.0583587  
H88      H      0.551910000000     0.202450000000     0.028750000000     0.0563285  
H89      H      0.443380000000     0.157380000000     0.040870000000     0.0419428  
H90      H      0.516090000000     0.330250000000     0.087030000000     0.0327782  
H91      H      0.582580000000     0.056340000000     0.717520000000     0.0464255  
H92      H      0.464730000000     0.007180000000     0.805430000000     0.0370185  
H93      H      0.532790000000     0.954130000000     0.676880000000     0.0324313  
H94      H      0.478000000000     0.979440000000     0.719230000000     0.0471929  
H95      H      0.503880000000     0.955590000000     0.769150000000     0.0465798  
H96      H      0.567380000000     0.069120000000     0.776120000000     0.0500628  
H97      H      0.583940000000     0.050280000000     0.645240000000     0.0427466  
H98      H      0.479460000000     0.966620000000     0.835860000000     0.0425513  
H99      H      0.477050000000     0.023800000000     0.692410000000     0.0586084  
H100     H      0.583600000000     0.027100000000     0.803150000000     0.054043   
H101     H      0.488860000000     0.965800000000     0.650010000000     0.0425154  
H102     H      0.538020000000     0.073810000000     0.694820000000     0.056737   
H103     H      0.543340000000     0.962550000000     0.801640000000     0.0559805  
H104     H      0.550170000000     0.071710000000     0.846720000000     0.0419126  
H105     H      0.592860000000     0.005360000000     0.671480000000     0.0332926  
H106     H      0.532220000000     0.959330000000     0.270250000000     0.0515949  
H107     H      0.443070000000     0.002110000000     0.171160000000     0.0396762  
H108     H      0.511860000000     0.075860000000     0.319570000000     0.0354986  
H109     H      0.459200000000     0.066710000000     0.275140000000     0.0473379  
H110     H      0.449130000000     0.055590000000     0.215500000000     0.0476986  
H111     H      0.558600000000     0.985930000000     0.221930000000     0.0502768  
H112     H      0.547200000000     0.968460000000     0.339800000000     0.0433808  
H113     H      0.449130000000     0.047000000000     0.144360000000     0.0440275  
H114     H      0.442230000000     0.021980000000     0.297770000000     0.0564613  
H115     H      0.556530000000     0.029970000000     0.195220000000     0.0557053  
H116     H      0.467680000000     0.067230000000     0.346880000000     0.0444154  
H117     H      0.488680000000     0.960590000000     0.298060000000     0.0604678  
H118     H      0.493510000000     0.074180000000     0.193560000000     0.0543613  
H119     H      0.553120000000     0.974980000000     0.150500000000     0.0411698  
H120     H      0.561940000000     0.011620000000     0.312990000000     0.0334046  
H121     H      0.782840000000     0.538310000000     0.444660000000     0.0499269  
H122     H      0.686130000000     0.456080000000     0.515900000000     0.0380707  
H123     H      0.828160000000     0.492990000000     0.555930000000     0.0338703  
H124     H      0.778890000000     0.443640000000     0.532430000000     0.0471028  
H125     H      0.737760000000     0.475570000000     0.564320000000     0.0460512  
H126     H      0.735810000000     0.565760000000     0.471480000000     0.0496844  
H127     H      0.855410000000     0.540040000000     0.452290000000     0.0426849  
H128     H      0.665230000000     0.472640000000     0.561190000000     0.042074   
H129     H      0.802680000000     0.440510000000     0.486990000000     0.0562703  
H130     H      0.716490000000     0.571950000000     0.518550000000     0.0540292  
H131     H      0.851500000000     0.448840000000     0.538700000000     0.042333   
H132     H      0.804200000000     0.491480000000     0.439150000000     0.0575733  
H133     H      0.716690000000     0.522590000000     0.569090000000     0.0537152  
H134     H      0.662760000000     0.562830000000     0.473570000000     0.0412435  
H135     H      0.831170000000     0.556570000000     0.495910000000     0.0344749  
H136     H      0.235370000000     0.484120000000     0.477520000000     0.0531025  
H137     H      0.329880000000     0.575350000000     0.525670000000     0.0412867  
H138     H      0.178700000000     0.501340000000     0.590520000000     0.0337282  
H139     H      0.225230000000     0.552900000000     0.586510000000     0.0472585  
H140     H      0.285680000000     0.564350000000     0.578390000000     0.0480197  
H141     H      0.282960000000     0.457210000000     0.505190000000     0.0499814  
H142     H      0.165420000000     0.468960000000     0.482370000000     0.0451238  
H143     H      0.357580000000     0.567020000000     0.569380000000     0.0449359  
H144     H      0.205610000000     0.572860000000     0.541810000000     0.0568346  
H145     H      0.310750000000     0.459620000000     0.548220000000     0.0557932  
H146     H      0.152630000000     0.546410000000     0.581730000000     0.0434228  
H147     H      0.207800000000     0.528050000000     0.478590000000     0.0630151  
H148     H      0.309630000000     0.519920000000     0.594210000000     0.0544918  
H149     H      0.353840000000     0.466890000000     0.492390000000     0.0413795  
H150     H      0.189540000000     0.453560000000     0.526610000000     0.0329817  
H151     H      0.720580000000     0.532870000000     0.078470000000     0.0471533  
H152     H      0.812900000000     0.470090000000     0.962340000000     0.0355382  
H153     H      0.673060000000     0.549310000000     0.965910000000     0.0310564  
H154     H      0.717880000000     0.494060000000     0.956120000000     0.0470723  
H155     H      0.770630000000     0.527950000000     0.955210000000     0.0466557  
H156     H      0.772700000000     0.490610000000     0.078340000000     0.0512616  
H157     H      0.648970000000     0.545190000000     0.075560000000     0.0419655  
H158     H      0.842180000000     0.512330000000     0.950600000000     0.0412916  
H159     H      0.692500000000     0.464710000000     0.990880000000     0.0591306  
H160     H      0.801180000000     0.533160000000     0.064840000000     0.0555161  
H161     H      0.645310000000     0.505530000000     0.955620000000     0.0410008  
H162     H      0.693340000000     0.488250000000     0.068210000000     0.0566958  
H163     H      0.799460000000     0.555420000000     0.988720000000     0.0566915  
H164     H      0.844310000000     0.476720000000     0.071610000000     0.0407329  
H165     H      0.676460000000     0.573250000000     0.040120000000     0.0340402  
H166     H      0.272660000000     0.483700000000     0.087960000000     0.0477441  
H167     H      0.176110000000     0.539720000000     0.973320000000     0.0377747  
H168     H      0.316330000000     0.471490000000     0.972940000000     0.0339541  
H169     H      0.269240000000     0.525880000000     0.966570000000     0.0498766  
H170     H      0.221890000000     0.484350000000     0.965040000000     0.0493585  
H171     H      0.216030000000     0.518020000000     0.089100000000     0.0521435  
H172     H      0.344630000000     0.474720000000     0.082140000000     0.0423113  
H173     H      0.149790000000     0.496120000000     0.959690000000     0.0452207  
H174     H      0.295010000000     0.554450000000     0.001610000000     0.0607087  
H175     H      0.191010000000     0.474000000000     0.073720000000     0.0553722  
H176     H      0.342050000000     0.516550000000     0.962910000000     0.0448514  
H177     H      0.297420000000     0.529600000000     0.077160000000     0.0576537  
H178     H      0.194330000000     0.454680000000     0.997740000000     0.0577445  
H179     H      0.143200000000     0.526270000000     0.081850000000     0.0406453  
H180     H      0.317060000000     0.445680000000     0.047580000000     0.0347611  
H181     H      0.977600000000     0.435490000000     0.734410000000     0.0459234  
H182     H      0.020510000000     0.555100000000     0.833790000000     0.0362067  
H183     H      0.955640000000     0.549200000000     0.689010000000     0.0310262  
H184     H      0.004630000000     0.561750000000     0.739500000000     0.0475046  
H185     H      0.965280000000     0.557640000000     0.787980000000     0.0463879  
H186     H      0.012520000000     0.437020000000     0.790620000000     0.0504214  
H187     H      0.972850000000     0.440120000000     0.662300000000     0.0408152  
H188     H      0.975570000000     0.561890000000     0.860220000000     0.0414752  
H189     H      0.039400000000     0.530430000000     0.716460000000     0.0593039  
H190     H      0.967450000000     0.447060000000     0.816170000000     0.0538631  
H191     H      0.000930000000     0.564040000000     0.666540000000     0.0418091  
H192     H      0.023490000000     0.451070000000     0.712560000000     0.0562117  
H193     H      0.939440000000     0.520810000000     0.814240000000     0.0550563  
H194     H      0.021040000000     0.443570000000     0.862760000000     0.0396392  
H195     H      0.938500000000     0.471540000000     0.687570000000     0.0329832  
H196     H      0.993420000000     0.435940000000     0.237620000000     0.046729   
H197     H      0.038510000000     0.558110000000     0.332180000000     0.0374718  
H198     H      0.960220000000     0.547990000000     0.196270000000     0.032923   
H199     H      0.016940000000     0.563230000000     0.238100000000     0.0497113  
H200     H      0.980950000000     0.559180000000     0.289050000000     0.0480037  
H201     H      0.032930000000     0.440560000000     0.290840000000     0.0509567  
H202     H      0.978290000000     0.439840000000     0.166700000000     0.0417816  
H203     H      0.994670000000     0.565160000000     0.360310000000     0.0422068  
H204     H      0.048000000000     0.532370000000     0.209910000000     0.0607145  
H205     H      0.988250000000     0.448390000000     0.317880000000     0.0545091  
H206     H      0.000570000000     0.565110000000     0.167040000000     0.0451265  
H207     H      0.034950000000     0.453310000000     0.209490000000     0.0562741  
H208     H      0.957320000000     0.521950000000     0.316830000000     0.0568559  
H209     H      0.043070000000     0.447800000000     0.363050000000     0.0398447  
H210     H      0.946430000000     0.469750000000     0.196570000000     0.0343083  
H211     H      0.065490000000     0.728860000000     0.542870000000     0.0508721  
H212     H      0.012760000000     0.816720000000     0.442820000000     0.0395467  
H213     H      0.952090000000     0.687710000000     0.503740000000     0.0330332  
H214     H      0.978730000000     0.726000000000     0.446770000000     0.0480002  
H215     H      0.954710000000     0.778040000000     0.466860000000     0.0470198  
H216     H      0.043020000000     0.782080000000     0.561390000000     0.0500606  
H217     H      0.050370000000     0.659120000000     0.556460000000     0.0433101  
H218     H      0.970390000000     0.847110000000     0.451020000000     0.0437605  
H219     H      0.022330000000     0.698290000000     0.447850000000     0.0585243  
H220     H      0.999540000000     0.809520000000     0.560210000000     0.0559633  
H221     H      0.964810000000     0.656730000000     0.463080000000     0.043023   
H222     H      0.070100000000     0.700150000000     0.500350000000     0.0603448  
H223     H      0.951580000000     0.807920000000     0.508650000000     0.0555496  
H224     H      0.054120000000     0.852450000000     0.545130000000     0.0425622  
H225     H      0.007590000000     0.689060000000     0.564620000000     0.0332422  
H226     H      0.952810000000     0.274380000000     0.521950000000     0.0507934  
H227     H      0.025190000000     0.188010000000     0.437880000000     0.0375845  
H228     H      0.069630000000     0.323570000000     0.508800000000     0.0331054  
H229     H      0.058570000000     0.284980000000     0.447830000000     0.0469859  
H230     H      0.077090000000     0.230510000000     0.466670000000     0.046273   
H231     H      0.978250000000     0.226690000000     0.550270000000     0.0486482  
H232     H      0.960480000000     0.344630000000     0.539950000000     0.0424225  
H233     H      0.067030000000     0.159970000000     0.453530000000     0.0425711  
H234     H      0.013880000000     0.309640000000     0.439130000000     0.0563472  
H235     H      0.022280000000     0.200710000000     0.555440000000     0.053559   
H236     H      0.063450000000     0.354630000000     0.466770000000     0.0433787  
H237     H      0.956220000000     0.304300000000     0.480240000000     0.0587021  
H238     H      0.076810000000     0.203120000000     0.510390000000     0.0535791  
H239     H      0.971400000000     0.155330000000     0.535520000000     0.0408481  
H240     H      0.002240000000     0.316950000000     0.556790000000     0.0327192  
H241     H      0.796610000000     0.951930000000     0.423470000000     0.0478208  
H242     H      0.706650000000     0.009500000000     0.530930000000     0.0371695  
H243     H      0.835400000000     0.055800000000     0.477140000000     0.0347673  
H244     H      0.789940000000     0.027280000000     0.528480000000     0.0483614  
H245     H      0.748700000000     0.060330000000     0.496230000000     0.0475036  
H246     H      0.735410000000     0.953850000000     0.423290000000     0.0503309  
H247     H      0.869060000000     0.958990000000     0.425260000000     0.0431604  
H248     H      0.679760000000     0.052960000000     0.517300000000     0.042811   
H249     H      0.817080000000     0.983090000000     0.527820000000     0.0595836  
H250     H      0.712640000000     0.999480000000     0.411780000000     0.0546576  
H251     H      0.860370000000     0.041260000000     0.521200000000     0.0443885  
H252     H      0.817160000000     0.936570000000     0.469190000000     0.0578177  
H253     H      0.717030000000     0.058090000000     0.455600000000     0.056347   
H254     H      0.663650000000     0.955780000000     0.438060000000     0.0417379  
H255     H      0.843340000000     0.003810000000     0.414420000000     0.0337952  
H256     H      0.294640000000     0.078430000000     0.472260000000     0.0460113  
H257     H      0.198470000000     0.948450000000     0.494950000000     0.0414414  
H258     H      0.345340000000     0.040970000000     0.571550000000     0.0312059  
H259     H      0.295960000000     0.994270000000     0.564140000000     0.0456623  
H260     H      0.242700000000     0.968210000000     0.543190000000     0.0473039  
H261     H      0.242050000000     0.053970000000     0.448860000000     0.050822   
H262     H      0.367790000000     0.080010000000     0.471250000000     0.042383   
H263     H      0.170460000000     0.961360000000     0.537390000000     0.0440477  
H264     H      0.318190000000     0.970570000000     0.522300000000     0.0569963  
H265     H      0.214460000000     0.070320000000     0.490440000000     0.0545951  
H266     H      0.369280000000     0.994400000000     0.564400000000     0.0423654  
H267     H      0.317240000000     0.034500000000     0.452470000000     0.0581902  
H268     H      0.215870000000     0.012010000000     0.556430000000     0.0532916  
H269     H      0.170400000000     0.044940000000     0.442560000000     0.0424833  
H270     H      0.344380000000     0.091060000000     0.516990000000     0.0309336  
H271     H      0.033260000000     0.783040000000     0.047600000000     0.0516171  
H272     H      0.931110000000     0.684430000000     0.015370000000     0.0384055  
H273     H      0.017620000000     0.821000000000     0.928930000000     0.0322114  
H274     H      0.962020000000     0.780480000000     0.939600000000     0.046651   
H275     H      0.942070000000     0.725050000000     0.960520000000     0.0472887  
H276     H      0.050210000000     0.726930000000     0.032030000000     0.0521721  
H277     H      0.052260000000     0.850460000000     0.031540000000     0.0439823  
H278     H      0.936410000000     0.653560000000     0.973270000000     0.0428776  
H279     H      0.944260000000     0.808960000000     0.980470000000     0.0579713  
H280     H      0.047250000000     0.696540000000     0.990710000000     0.0582133  
H281     H      0.974740000000     0.851610000000     0.931340000000     0.0435197  
H282     H      0.991130000000     0.812930000000     0.043960000000     0.0613741  
H283     H      0.984290000000     0.697790000000     0.943660000000     0.0541907  
H284     H      0.037070000000     0.658440000000     0.049890000000     0.0444898  
H285     H      0.064240000000     0.818500000000     0.991210000000     0.0333126  
H286     H      0.065420000000     0.278730000000     0.979480000000     0.0510631  
H287     H      0.989290000000     0.179900000000     0.048950000000     0.0376244  
H288     H      0.948330000000     0.323130000000     0.009740000000     0.0358954  
H289     H      0.964780000000     0.272520000000     0.060060000000     0.0477083  
H290     H      0.939740000000     0.228790000000     0.025810000000     0.0469537  
H291     H      0.039850000000     0.235780000000     0.944540000000     0.0494991  
H292     H      0.057420000000     0.351490000000     0.977740000000     0.0435684  
H293     H      0.947600000000     0.156180000000     0.027100000000     0.0423695  
H294     H      0.009670000000     0.296000000000     0.070270000000     0.0560853  
H295     H      0.995040000000     0.212550000000     0.934720000000     0.0534512  
H296     H      0.959210000000     0.345280000000     0.056160000000     0.0443494  
H297     H      0.064230000000     0.299340000000     0.026580000000     0.0583375  
H298     H      0.940690000000     0.208600000000     0.978510000000     0.0535688  
H299     H      0.043530000000     0.162310000000     0.946630000000     0.0411294  
H300     H      0.015970000000     0.327460000000     0.955670000000     0.0344751  
H301     H      0.732950000000     0.979640000000     0.044940000000     0.0522232  
H302     H      0.828000000000     0.949310000000     0.954040000000     0.0396997  
H303     H      0.688890000000     0.069120000000     0.971550000000     0.0330188  
H304     H      0.726780000000     0.029220000000     0.926310000000     0.0459928  
H305     H      0.782000000000     0.992230000000     0.921470000000     0.0475249  
H306     H      0.782110000000     0.018970000000     0.047130000000     0.0504085  
H307     H      0.661860000000     0.996320000000     0.053870000000     0.0430027  
H308     H      0.854630000000     0.983570000000     0.923840000000     0.0408226  
H309     H      0.698310000000     0.985490000000     0.936650000000     0.0561568  
H310     H      0.807130000000     0.051030000000     0.015020000000     0.0563271  
H311     H      0.656660000000     0.045070000000     0.937240000000     0.0415171  
H312     H      0.702350000000     0.956350000000     0.009950000000     0.0616588  
H313     H      0.807170000000     0.036410000000     0.937220000000     0.0533734  
H314     H      0.855300000000     0.010530000000     0.046830000000     0.0410599  
H315     H      0.691400000000     0.039130000000     0.044410000000     0.0312438  
H316     H      0.231030000000     0.969650000000     0.043520000000     0.0526014  
H317     H      0.332100000000     0.941280000000     0.959040000000     0.0388772  
H318     H      0.189760000000     0.056490000000     0.965090000000     0.0363053  
H319     H      0.228710000000     0.014260000000     0.922760000000     0.0468038  
H320     H      0.285470000000     0.979960000000     0.922350000000     0.0476784  
H321     H      0.278270000000     0.011410000000     0.046700000000     0.0519432  
H322     H      0.159680000000     0.987000000000     0.049530000000     0.0439406  
H323     H      0.358060000000     0.975420000000     0.928130000000     0.041793   
H324     H      0.199810000000     0.971230000000     0.934500000000     0.055048   
H325     H      0.302530000000     0.044040000000     0.014540000000     0.058985   
H326     H      0.158490000000     0.030950000000     0.930950000000     0.0426784  
H327     H      0.201400000000     0.945380000000     0.008380000000     0.0598204  
H328     H      0.307380000000     0.026200000000     0.937180000000     0.0561524  
H329     H      0.351980000000     0.008270000000     0.049590000000     0.0420509  
H330     H      0.189720000000     0.029340000000     0.039620000000     0.0337718  
H331     H      0.992950000000     0.950930000000     0.759360000000     0.0518332  
H332     H      0.954890000000     0.030060000000     0.662390000000     0.0386732  
H333     H      0.060060000000     0.042540000000     0.810330000000     0.0339974  
H334     H      0.018530000000     0.077680000000     0.764760000000     0.0457148  
H335     H      0.989550000000     0.074000000000     0.706140000000     0.0461893  
H336     H      0.038630000000     0.954570000000     0.715910000000     0.0499677  
H337     H      0.999250000000     0.948140000000     0.832260000000     0.0420902  
H338     H      0.983360000000     0.065050000000     0.634810000000     0.0406282  
H339     H      0.973810000000     0.060220000000     0.787470000000     0.0540021  
H340     H      0.065080000000     0.991010000000     0.690200000000     0.0554688  
H341     H      0.025190000000     0.072410000000     0.836710000000     0.0403344  
H342     H      0.959340000000     0.982340000000     0.783860000000     0.0588662  
H343     H      0.036580000000     0.064030000000     0.683590000000     0.0533422  
H344     H      0.034930000000     0.949540000000     0.642250000000     0.0406053  
H345     H      0.043860000000     0.963100000000     0.808560000000     0.0313541  
H346     H      0.040180000000     0.946210000000     0.211150000000     0.0528034  
H347     H      0.074680000000     0.032940000000     0.307590000000     0.0406062  
H348     H      0.954350000000     0.025350000000     0.169450000000     0.0342687  
H349     H      0.994510000000     0.067410000000     0.210270000000     0.0467869  
H350     H      0.031460000000     0.069200000000     0.264760000000     0.0477748  
H351     H      0.002250000000     0.943080000000     0.260830000000     0.0514503  
H352     H      0.025270000000     0.941710000000     0.139730000000     0.0437801  
H353     H      0.042600000000     0.063960000000     0.335880000000     0.0427166  
H354     H      0.038530000000     0.057320000000     0.182410000000     0.0562211  
H355     H      0.971280000000     0.975150000000     0.287250000000     0.0567194  
H356     H      0.980220000000     0.060730000000     0.139760000000     0.0422934  
H357     H      0.065380000000     0.982250000000     0.183250000000     0.0607245  
H358     H      0.987740000000     0.053120000000     0.290300000000     0.0547071  
H359     H      0.011360000000     0.940900000000     0.333770000000     0.0425707  
H360     H      0.982130000000     0.950730000000     0.168610000000     0.0331556  
N1       N      0.490460000000     0.505850000000     0.874670000000    -0.165363   
N2       N      0.519070000000     0.529790000000     0.670420000000    -0.164785   
N3       N      0.396690000000     0.495820000000     0.825760000000    -0.104549   
N4       N      0.504690000000     0.511880000000     0.373030000000    -0.164367   
N5       N      0.495530000000     0.515260000000     0.174080000000    -0.164803   
N6       N      0.523490000000     0.415070000000     0.333160000000    -0.10258    
N7       N      0.508310000000     0.668200000000     0.513190000000    -0.165037   
N8       N      0.503070000000     0.865730000000     0.494090000000    -0.164124   
N9       N      0.408310000000     0.699150000000     0.495030000000    -0.102619   
N10      N      0.531110000000     0.165160000000     0.498470000000    -0.165257   
N11      N      0.505640000000     0.368300000000     0.531760000000    -0.164399   
N12      N      0.539850000000     0.220400000000     0.408290000000    -0.103377   
N13      N      0.521770000000     0.861640000000     0.988840000000    -0.164878   
N14      N      0.483320000000     0.659890000000     0.026410000000    -0.164394   
N15      N      0.614320000000     0.809010000000     0.985600000000    -0.104553   
N16      N      0.491480000000     0.159230000000     0.999700000000    -0.164877   
N17      N      0.512120000000     0.362560000000     0.034300000000    -0.164767   
N18      N      0.401480000000     0.203690000000     0.965670000000    -0.102387   
N19      N      0.511000000000     0.021490000000     0.844880000000    -0.165781   
N20      N      0.537480000000     0.006670000000     0.643420000000    -0.164985   
N21      N      0.473310000000     0.109800000000     0.799570000000    -0.103747   
N22      N      0.498600000000     0.006610000000     0.143380000000    -0.165175   
N23      N      0.510690000000     0.020220000000     0.347450000000    -0.164173   
N24      N      0.489130000000     0.909870000000     0.186740000000    -0.103267   
N25      N      0.659070000000     0.512470000000     0.512000000000    -0.164871   
N26      N      0.857740000000     0.500170000000     0.501610000000    -0.164131   
N27      N      0.686570000000     0.490000000000     0.412400000000    -0.103415   
N28      N      0.359540000000     0.520410000000     0.526030000000    -0.164533   
N29      N      0.154670000000     0.505020000000     0.533610000000    -0.164077   
N30      N      0.313050000000     0.532190000000     0.431620000000    -0.102197   
N31      N      0.846640000000     0.491040000000     0.010190000000    -0.165588   
N32      N      0.643400000000     0.526520000000     0.015380000000    -0.165249   
N33      N      0.799210000000     0.398450000000     0.032880000000    -0.10498    
N34      N      0.142970000000     0.515110000000     0.019870000000    -0.165392   
N35      N      0.347110000000     0.493940000000     0.021910000000    -0.164768   
N36      N      0.182660000000     0.609750000000     0.047970000000    -0.102811   
N37      N      0.002520000000     0.504230000000     0.865070000000    -0.165781   
N38      N      0.985280000000     0.502510000000     0.660510000000    -0.165073   
N39      N      0.099000000000     0.488640000000     0.823620000000    -0.104226   
N40      N      0.022180000000     0.507730000000     0.365130000000    -0.165728   
N41      N      0.987410000000     0.502760000000     0.163270000000    -0.165051   
N42      N      0.118100000000     0.495430000000     0.321320000000    -0.10258    
N43      N      0.017660000000     0.853090000000     0.493280000000    -0.164794   
N44      N      0.003980000000     0.654130000000     0.513180000000    -0.164947   
N45      N      0.112280000000     0.806070000000     0.481460000000    -0.101622   
N46      N      0.014480000000     0.154000000000     0.489000000000    -0.165737   
N47      N      0.014750000000     0.353470000000     0.507840000000    -0.165183   
N48      N      0.920780000000     0.196860000000     0.462790000000    -0.10563    
N49      N      0.667970000000     0.000600000000     0.482780000000    -0.165313   
N50      N      0.869050000000     0.003380000000     0.470810000000    -0.164215   
N51      N      0.704120000000     0.904790000000     0.511050000000    -0.104832   
N52      N      0.166510000000     0.001610000000     0.488540000000    -0.16454    
N53      N      0.372330000000     0.035520000000     0.516220000000    -0.164704   
N54      N      0.211980000000     0.967440000000     0.399310000000    -0.0985223  
N55      N      0.984500000000     0.652320000000     0.014870000000    -0.165015   
N56      N      0.014720000000     0.855070000000     0.980610000000    -0.164821   
N57      N      0.972050000000     0.706590000000     0.105200000000    -0.103712   
N58      N      0.001450000000     0.154710000000     0.993290000000    -0.165313   
N59      N      0.003350000000     0.352850000000     0.011090000000    -0.16424    
N60      N      0.097060000000     0.189540000000     0.023850000000    -0.104249   
N61      N      0.858630000000     0.993220000000     0.986110000000    -0.165504   
N62      N      0.655620000000     0.022570000000     0.996470000000    -0.165068   
N63      N      0.820220000000     0.918960000000     0.051360000000    -0.103573   
N64      N      0.358860000000     0.988490000000     0.989940000000    -0.165691   
N65      N      0.155490000000     0.011270000000     0.991090000000    -0.164402   
N66      N      0.322760000000     0.914840000000     0.057120000000    -0.102624   
N67      N      0.005030000000     0.005140000000     0.634790000000    -0.16613    
N68      N      0.015110000000     0.009640000000     0.838260000000    -0.165885   
N69      N      0.944950000000     0.926700000000     0.673520000000    -0.105524   
N70      N      0.030580000000     0.001380000000     0.338490000000    -0.165352   
N71      N      0.000690000000     0.000480000000     0.136090000000    -0.165338   
N72      N      0.102060000000     0.934520000000     0.297450000000    -0.0994075  
O1       O      0.006960000000     0.004600000000     0.987140000000    -0.369094   
O2       O      0.024580000000     0.976770000000     0.078030000000    -0.303388   
O3       O      0.977180000000     0.093930000000     0.010440000000    -0.304589   
O4       O      0.096270000000     0.029370000000     0.965250000000    -0.304051   
O5       O      0.983220000000     0.027200000000     0.077300000000    -0.305561   
O6       O      0.097240000000     0.987570000000     0.015310000000    -0.301613   
O7       O      0.028210000000     0.097220000000     0.970290000000    -0.303998   
O8       O      0.992100000000     0.981550000000     0.894640000000    -0.305304   
O9       O      0.915810000000     0.017860000000     0.011360000000    -0.304549   
O10      O      0.028900000000     0.035320000000     0.898450000000    -0.306751   
O11      O      0.918470000000     0.980350000000     0.958070000000    -0.302018   
O12      O      0.988930000000     0.913980000000     0.960300000000    -0.303656   
O13      O      0.034110000000     0.914080000000     0.007060000000    -0.302937   
O14      O      0.017420000000     0.003290000000     0.486600000000    -0.368216   
O15      O      0.925230000000     0.024270000000     0.501350000000    -0.303776   
O16      O      0.006960000000     0.974770000000     0.395450000000    -0.302434   
O17      O      0.041030000000     0.095830000000     0.467000000000    -0.305629   
O18      O      0.930080000000     0.980180000000     0.453630000000    -0.303062   
O19      O      0.990300000000     0.093810000000     0.507420000000    -0.306049   
O20      O      0.042040000000     0.029830000000     0.398010000000    -0.303504   
O21      O      0.107240000000     0.981740000000     0.514120000000    -0.30126    
O22      O      0.996060000000     0.910930000000     0.465830000000    -0.303045   
O23      O      0.107810000000     0.026010000000     0.466310000000    -0.30294    
O24      O      0.040080000000     0.913430000000     0.513470000000    -0.302647   
O25      O      0.033660000000     0.981260000000     0.578900000000    -0.303902   
O26      O      0.987870000000     0.027620000000     0.574200000000    -0.306174   
O27      O      0.994820000000     0.502710000000     0.014050000000    -0.369177   
O28      O      0.081860000000     0.528810000000     0.044200000000    -0.301972   
O29      O      0.026320000000     0.413690000000     0.992640000000    -0.304135   
O30      O      0.974340000000     0.474280000000     0.104050000000    -0.305186   
O31      O      0.087090000000     0.490020000000     0.992050000000    -0.303146   
O32      O      0.007790000000     0.530290000000     0.105620000000    -0.303307   
O33      O      0.975900000000     0.410230000000     0.033560000000    -0.304412   
O34      O      0.904180000000     0.515550000000     0.985040000000    -0.303354   
O35      O      0.020470000000     0.479410000000     0.924590000000    -0.303354   
O36      O      0.906350000000     0.476300000000     0.037080000000    -0.303197   
O37      O      0.977020000000     0.528060000000     0.922530000000    -0.303747   
O38      O      0.964000000000     0.591840000000     0.992530000000    -0.303438   
O39      O      0.012170000000     0.594610000000     0.036120000000    -0.302416   
O40      O      0.006630000000     0.503770000000     0.513260000000    -0.367088   
O41      O      0.985240000000     0.410130000000     0.529880000000    -0.305186   
O42      O      0.038640000000     0.482900000000     0.425140000000    -0.303266   
O43      O      0.917790000000     0.524380000000     0.482540000000    -0.30356    
O44      O      0.036870000000     0.414810000000     0.490760000000    -0.306473   
O45      O      0.915600000000     0.476960000000     0.527240000000    -0.304009   
O46      O      0.993250000000     0.529740000000     0.421560000000    -0.304518   
O47      O      0.026330000000     0.595450000000     0.538070000000    -0.304282   
O48      O      0.099790000000     0.485510000000     0.499930000000    -0.303222   
O49      O      0.982970000000     0.594490000000     0.489770000000    -0.305632   
O50      O      0.092730000000     0.526340000000     0.550160000000    -0.302245   
O51      O      0.012950000000     0.529450000000     0.605580000000    -0.303491   
O52      O      0.977320000000     0.474920000000     0.600000000000    -0.304695   
O53      O      0.506610000000     0.010270000000     0.994090000000    -0.367628   
O54      O      0.420290000000     0.979070000000     0.964260000000    -0.302844   
O55      O      0.477450000000     0.028640000000     0.083640000000    -0.305109   
O56      O      0.536880000000     0.921690000000     0.015980000000    -0.299733   
O57      O      0.413370000000     0.018000000000     0.015970000000    -0.303287   
O58      O      0.495720000000     0.919380000000     0.965610000000    -0.30326    
O59      O      0.527870000000     0.987430000000     0.085850000000    -0.301482   
O60      O      0.595300000000     0.039720000000     0.972500000000    -0.306227   
O61      O      0.470870000000     0.097110000000     0.017000000000    -0.301983   
O62      O      0.598530000000     0.996640000000     0.021250000000    -0.301748   
O63      O      0.522970000000     0.103520000000     0.978460000000    -0.304853   
O64      O      0.528340000000     0.042760000000     0.906070000000    -0.305369   
O65      O      0.490610000000     0.989960000000     0.900700000000    -0.304943   
O66      O      0.519450000000     0.015270000000     0.496050000000    -0.366661   
O67      O      0.429360000000     0.047840000000     0.482580000000    -0.304115   
O68      O      0.487510000000     0.926670000000     0.518680000000    -0.304421   
O69      O      0.533540000000     0.992340000000     0.404130000000    -0.304165   
O70      O      0.429960000000     0.003470000000     0.530180000000    -0.305148   
O71      O      0.491690000000     0.042330000000     0.408030000000    -0.302486   
O72      O      0.530510000000     0.922570000000     0.470150000000    -0.303792   
O73      O      0.613740000000     0.030580000000     0.509360000000    -0.304025   
O74      O      0.505200000000     0.990240000000     0.587010000000    -0.3057     
O75      O      0.605140000000     0.982510000000     0.466320000000    -0.303154   
O76      O      0.554490000000     0.032880000000     0.583890000000    -0.303592   
O77      O      0.552210000000     0.104040000000     0.518400000000    -0.303803   
O78      O      0.502450000000     0.108060000000     0.476770000000    -0.303679   
O79      O      0.495260000000     0.510840000000     0.024220000000    -0.367374   
O80      O      0.585810000000     0.498790000000     0.994230000000    -0.304553   
O81      O      0.512250000000     0.602330000000     0.046200000000    -0.304432   
O82      O      0.471180000000     0.532930000000     0.933160000000    -0.302625   
O83      O      0.584700000000     0.539170000000     0.045330000000    -0.305529   
O84      O      0.514180000000     0.483940000000     0.933580000000    -0.304918   
O85      O      0.463700000000     0.599590000000     0.002860000000    -0.302031   
O86      O      0.407320000000     0.481160000000     0.048640000000    -0.305168   
O87      O      0.518770000000     0.536650000000     0.114730000000    -0.30496    
O88      O      0.403360000000     0.522700000000     0.998590000000    -0.302347   
O89      O      0.473490000000     0.489910000000     0.115980000000    -0.306213   
O90      O      0.482050000000     0.420110000000     0.052400000000    -0.30472    
O91      O      0.527290000000     0.421810000000     0.005650000000    -0.303357   
O92      O      0.509500000000     0.518160000000     0.522010000000    -0.365868   
O93      O      0.417690000000     0.494930000000     0.503100000000    -0.301752   
O94      O      0.490450000000     0.546530000000     0.611990000000    -0.304183   
O95      O      0.530400000000     0.428180000000     0.551020000000    -0.303092   
O96      O      0.419560000000     0.543180000000     0.546770000000    -0.302682   
O97      O      0.485080000000     0.426440000000     0.504410000000    -0.302944   
O98      O      0.538400000000     0.502240000000     0.612260000000    -0.304602   
O99      O      0.599560000000     0.538520000000     0.493870000000    -0.302664   
O100     O      0.487180000000     0.610280000000     0.540660000000    -0.302625   
O101     O      0.600970000000     0.492790000000     0.540150000000    -0.30365    
O102     O      0.532220000000     0.608000000000     0.493870000000    -0.304339   
O103     O      0.529190000000     0.537230000000     0.430180000000    -0.303096   
O104     O      0.483360000000     0.490950000000     0.433280000000    -0.300595   
Zn1      Zn     0.039890000000     0.971740000000     0.021050000000     0.450369   
Zn2      Zn     0.971770000000     0.035320000000     0.020210000000     0.452615   
Zn3      Zn     0.038910000000     0.040620000000     0.956220000000     0.453708   
Zn4      Zn     0.977140000000     0.971450000000     0.950930000000     0.450363   
Zn5      Zn     0.981190000000     0.036050000000     0.516470000000     0.454762   
Zn6      Zn     0.988470000000     0.968200000000     0.451340000000     0.45108    
Zn7      Zn     0.050830000000     0.038160000000     0.455650000000     0.45313    
Zn8      Zn     0.049050000000     0.971340000000     0.522490000000     0.4517     
Zn9      Zn     0.023380000000     0.537860000000     0.049080000000     0.453681   
Zn10     Zn     0.031250000000     0.472180000000     0.982020000000     0.452052   
Zn11     Zn     0.964030000000     0.466920000000     0.046370000000     0.45337    
Zn12     Zn     0.960820000000     0.533630000000     0.979420000000     0.448367   
Zn13     Zn     0.972430000000     0.467160000000     0.541610000000     0.449364   
Zn14     Zn     0.044400000000     0.473010000000     0.483000000000     0.453326   
Zn15     Zn     0.975830000000     0.536880000000     0.477720000000     0.45032    
Zn16     Zn     0.034040000000     0.537760000000     0.550760000000     0.44861    
Zn17     Zn     0.479240000000     0.975840000000     0.956990000000     0.451812   
Zn18     Zn     0.468140000000     0.038060000000     0.026370000000     0.452805   
Zn19     Zn     0.541590000000     0.979980000000     0.028560000000     0.449019   
Zn20     Zn     0.537420000000     0.047940000000     0.963910000000     0.454139   
Zn21     Zn     0.486450000000     0.051800000000     0.466310000000     0.450216   
Zn22     Zn     0.486250000000     0.984740000000     0.531600000000     0.452009   
Zn23     Zn     0.546220000000     0.979090000000     0.460260000000     0.451903   
Zn24     Zn     0.558680000000     0.045150000000     0.526040000000     0.449676   
Zn25     Zn     0.529560000000     0.479510000000     0.990400000000     0.449414   
Zn26     Zn     0.527010000000     0.545830000000     0.056840000000     0.451528   
Zn27     Zn     0.459510000000     0.541090000000     0.990720000000     0.448714   
Zn28     Zn     0.465290000000     0.476670000000     0.059210000000     0.453448   
Zn29     Zn     0.474970000000     0.483600000000     0.491470000000     0.451636   
Zn30     Zn     0.477540000000     0.553260000000     0.554600000000     0.450936   
Zn31     Zn     0.543810000000     0.486220000000     0.555490000000     0.448614   
Zn32     Zn     0.541770000000     0.549750000000     0.486380000000     0.452834   


