data_structure

_audit_creation_method RASPA-1.0
_audit_creation_date 2023-5-25
_audit_author_name 'Poobodin Mano'

_cell_length_a    34.0607
_cell_length_b    34.0346
_cell_length_c    34.0115
_cell_angle_alpha 90
_cell_angle_beta  90
_cell_angle_gamma 90
_cell_volume      39427.6

_symmetry_cell_setting          triclinic
_symmetry_space_group_name_Hall 'P 1'
_symmetry_space_group_name_H-M  'P 1'
_symmetry_Int_Tables_number     1

_symmetry_equiv_pos_as_xyz 'x,y,z'

loop_
_atom_site_label
_atom_site_type_symbol
_atom_site_fract_x
_atom_site_fract_y
_atom_site_fract_z
_atom_site_charge
C1       C      0.995170000000     0.006220000000     0.112070000000     0.363034   
C2       C      0.101680000000     0.014910000000     0.003750000000     0.382685   
C3       C      0.991730000000     0.907120000000     0.988660000000     0.367022   
C4       C      0.994200000000     0.030140000000     0.895280000000     0.383189   
C5       C      0.985260000000     0.123110000000     0.014540000000     0.366301   
C6       C      0.883710000000     0.008280000000     0.005450000000     0.382263   
C7       C      0.018330000000     0.000220000000     0.395460000000     0.380092   
C8       C      0.121720000000     0.997420000000     0.504710000000     0.381466   
C9       C      0.022900000000     0.110390000000     0.508340000000     0.381184   
C10      C      0.007410000000     0.002260000000     0.614620000000     0.365258   
C11      C      0.007550000000     0.894630000000     0.511070000000     0.361893   
C12      C      0.905570000000     0.013250000000     0.496120000000     0.363391   
C13      C      0.009420000000     0.519770000000     0.899000000000     0.366389   
C14      C      0.008370000000     0.407480000000     0.999120000000     0.383784   
C15      C      0.113870000000     0.516330000000     0.015880000000     0.367161   
C16      C      0.999520000000     0.511270000000     0.116500000000     0.366114   
C17      C      0.897300000000     0.517490000000     0.007980000000     0.379694   
C18      C      0.009350000000     0.625940000000     0.009370000000     0.382262   
C19      C      0.014290000000     0.392660000000     0.515100000000     0.367259   
C20      C      0.902220000000     0.488700000000     0.501860000000     0.365147   
C21      C      0.998750000000     0.510790000000     0.617330000000     0.384464   
C22      C      0.000590000000     0.609550000000     0.501080000000     0.379689   
C23      C      0.020730000000     0.499540000000     0.400130000000     0.384347   
C24      C      0.117080000000     0.503400000000     0.519100000000     0.362255   
C25      C      0.382420000000     0.004460000000     0.998120000000     0.364842   
C26      C      0.484340000000     0.997510000000     0.107820000000     0.37975    
C27      C      0.497120000000     0.894760000000     0.992210000000     0.380427   
C28      C      0.599790000000     0.008930000000     0.008230000000     0.365609   
C29      C      0.491760000000     0.112420000000     0.997950000000     0.380972   
C30      C      0.494800000000     0.003990000000     0.889650000000     0.38308    
C31      C      0.511680000000     0.107400000000     0.505560000000     0.376578   
C32      C      0.516310000000     0.997450000000     0.609720000000     0.366698   
C33      C      0.406620000000     0.990080000000     0.499720000000     0.36579    
C34      C      0.520410000000     0.890620000000     0.497890000000     0.382309   
C35      C      0.623820000000     0.000390000000     0.495530000000     0.380153   
C36      C      0.512090000000     0.006700000000     0.391130000000     0.364426   
C37      C      0.396720000000     0.488000000000     0.007720000000     0.383971   
C38      C      0.517910000000     0.394850000000     0.014860000000     0.368586   
C39      C      0.504650000000     0.504720000000     0.902580000000     0.381496   
C40      C      0.612060000000     0.518760000000     0.006050000000     0.364386   
C41      C      0.506430000000     0.500230000000     0.120990000000     0.381057   
C42      C      0.487120000000     0.610660000000     0.019140000000     0.363051   
C43      C      0.401990000000     0.508880000000     0.515410000000     0.383284   
C44      C      0.515440000000     0.511650000000     0.621240000000     0.366996   
C45      C      0.505640000000     0.395400000000     0.518220000000     0.360427   
C46      C      0.619460000000     0.498110000000     0.507490000000     0.384113   
C47      C      0.515610000000     0.611890000000     0.504310000000     0.366953   
C48      C      0.506670000000     0.499000000000     0.401530000000     0.366962   
C49      C      0.495930000000     0.546590000000     0.682200000000     0.00625781 
C50      C      0.529370000000     0.478110000000     0.839300000000     0.0290225  
C51      C      0.476370000000     0.530720000000     0.840640000000     0.338587   
C52      C      0.548390000000     0.499170000000     0.804360000000    -0.120082   
C53      C      0.475240000000     0.530610000000     0.718890000000    -0.0959479  
C54      C      0.496080000000     0.550710000000     0.805370000000    -0.193903   
C55      C      0.504690000000     0.508230000000     0.743880000000     0.0232754  
C56      C      0.516780000000     0.519850000000     0.780700000000     0.0715414  
C57      C      0.543720000000     0.489650000000     0.684850000000     0.00739802 
C58      C      0.522410000000     0.474050000000     0.721300000000    -0.099149   
C59      C      0.530000000000     0.525430000000     0.337860000000     0.00728147 
C60      C      0.484110000000     0.467350000000     0.181970000000     0.0285118  
C61      C      0.535130000000     0.521990000000     0.184440000000     0.338646   
C62      C      0.465420000000     0.483650000000     0.219520000000    -0.120539   
C63      C      0.545690000000     0.504950000000     0.301070000000    -0.0980529  
C64      C      0.515710000000     0.537070000000     0.222230000000    -0.192071   
C65      C      0.511420000000     0.487640000000     0.278650000000     0.0244128  
C66      C      0.497140000000     0.502920000000     0.244070000000     0.0705138  
C67      C      0.474570000000     0.475260000000     0.340560000000     0.00712509 
C68      C      0.490710000000     0.456440000000     0.302880000000    -0.100569   
C69      C      0.492170000000     0.677230000000     0.526140000000     0.00835633 
C70      C      0.552650000000     0.829790000000     0.474130000000     0.0277631  
C71      C      0.499090000000     0.827280000000     0.526480000000     0.339844   
C72      C      0.536470000000     0.791580000000     0.456480000000    -0.119304   
C73      C      0.515040000000     0.713350000000     0.539920000000    -0.0997116  
C74      C      0.483070000000     0.790180000000     0.506910000000    -0.193954   
C75      C      0.532030000000     0.733820000000     0.504240000000     0.0282038  
C76      C      0.516890000000     0.767830000000     0.488700000000     0.0708181  
C77      C      0.540050000000     0.670650000000     0.468960000000     0.00879661 
C78      C      0.561300000000     0.707740000000     0.483180000000    -0.102926   
C79      C      0.481240000000     0.332270000000     0.492190000000     0.00844983 
C80      C      0.547140000000     0.169860000000     0.516920000000     0.0309923  
C81      C      0.477610000000     0.170160000000     0.491240000000     0.341377   
C82      C      0.538140000000     0.205280000000     0.543270000000    -0.1202     
C83      C      0.469190000000     0.291630000000     0.507660000000    -0.0957272  
C84      C      0.467300000000     0.203790000000     0.519300000000    -0.195755   
C85      C      0.503360000000     0.269040000000     0.525540000000     0.0114887  
C86      C      0.503360000000     0.228720000000     0.527800000000     0.0751526  
C87      C      0.525000000000     0.334770000000     0.552960000000     0.0081992  
C88      C      0.537500000000     0.293220000000     0.541110000000    -0.096147   
C89      C      0.497240000000     0.673150000000     0.055330000000     0.00855129 
C90      C      0.479520000000     0.832470000000     0.958460000000     0.0323339  
C91      C      0.534310000000     0.833890000000     0.006960000000     0.342065   
C92      C      0.462830000000     0.794560000000     0.976210000000    -0.117105   
C93      C      0.514260000000     0.711110000000     0.038400000000    -0.0925811  
C94      C      0.519100000000     0.797230000000     0.027980000000    -0.198358   
C95      C      0.486530000000     0.732730000000     0.010390000000     0.00575171 
C96      C      0.491330000000     0.772350000000     0.002980000000     0.0742242  
C97      C      0.446160000000     0.669030000000     0.003530000000     0.00762174 
C98      C      0.459640000000     0.707580000000     0.984540000000    -0.0922738  
C99      C      0.500790000000     0.331720000000     0.046850000000     0.0102641  
C100     C      0.510170000000     0.173690000000     0.963040000000     0.0290632  
C101     C      0.470410000000     0.176510000000     0.025480000000     0.340988   
C102     C      0.536520000000     0.207280000000     0.977480000000    -0.118726   
C103     C      0.482110000000     0.296680000000     0.026240000000    -0.097103   
C104     C      0.497580000000     0.208630000000     0.041240000000    -0.193771   
C105     C      0.513410000000     0.272600000000     0.005420000000     0.0153903  
C106     C      0.514920000000     0.232350000000     0.007510000000     0.0744452  
C107     C      0.554370000000     0.334350000000     0.996270000000     0.00932035 
C108     C      0.538990000000     0.296300000000     0.977270000000    -0.0977641  
C109     C      0.542770000000     0.021240000000     0.673520000000     0.0061221  
C110     C      0.468330000000     0.981230000000     0.825630000000     0.0301426  
C111     C      0.522830000000     0.032300000000     0.828620000000     0.339114   
C112     C      0.489060000000     0.962170000000     0.790470000000    -0.121203   
C113     C      0.521750000000     0.039460000000     0.709030000000    -0.0964779  
C114     C      0.542470000000     0.012410000000     0.793300000000    -0.194215   
C115     C      0.500130000000     0.007480000000     0.731460000000     0.0237214  
C116     C      0.511150000000     0.993630000000     0.767830000000     0.0728394  
C117     C      0.490250000000     0.968270000000     0.671140000000     0.00699829 
C118     C      0.469440000000     0.988070000000     0.705720000000    -0.0992215  
C119     C      0.533840000000     0.982880000000     0.325760000000     0.00741724 
C120     C      0.449940000000     0.015650000000     0.169550000000     0.0305042  
C121     C      0.503830000000     0.965030000000     0.170100000000     0.34164    
C122     C      0.466380000000     0.034500000000     0.207150000000    -0.120072   
C123     C      0.507010000000     0.967990000000     0.293080000000    -0.0941401  
C124     C      0.522730000000     0.985180000000     0.205440000000    -0.195718   
C125     C      0.490000000000     0.002520000000     0.270420000000     0.0110232  
C126     C      0.491760000000     0.005760000000     0.230220000000     0.0768924  
C127     C      0.493250000000     0.044390000000     0.331540000000     0.00607749 
C128     C      0.468010000000     0.031630000000     0.296330000000    -0.095689   
C129     C      0.839980000000     0.483900000000     0.538740000000     0.00903693 
C130     C      0.680470000000     0.510210000000     0.470190000000     0.0306307  
C131     C      0.682900000000     0.488460000000     0.541510000000     0.340162   
C132     C      0.714880000000     0.482890000000     0.460230000000    -0.122284   
C133     C      0.799940000000     0.502870000000     0.531890000000    -0.0974551  
C134     C      0.718240000000     0.462420000000     0.532060000000    -0.195179   
C135     C      0.779460000000     0.485080000000     0.496520000000     0.0133872  
C136     C      0.740120000000     0.477690000000     0.496430000000     0.0725189  
C137     C      0.843410000000     0.463650000000     0.467460000000     0.00991504 
C138     C      0.803840000000     0.483590000000     0.459280000000    -0.098541   
C139     C      0.180100000000     0.503820000000     0.483570000000     0.00710112 
C140     C      0.342290000000     0.530390000000     0.550530000000     0.0312463  
C141     C      0.338240000000     0.503540000000     0.481140000000     0.340228   
C142     C      0.304750000000     0.508190000000     0.561850000000    -0.123009   
C143     C      0.218900000000     0.525410000000     0.489720000000    -0.0957521  
C144     C      0.299780000000     0.482800000000     0.491530000000    -0.195849   
C145     C      0.240080000000     0.510250000000     0.525810000000     0.00993568 
C146     C      0.279380000000     0.502670000000     0.525790000000     0.0742547  
C147     C      0.177390000000     0.487540000000     0.556150000000     0.00804323 
C148     C      0.215740000000     0.510240000000     0.563050000000    -0.0967204  
C149     C      0.670300000000     0.560120000000     0.020410000000     0.00740706 
C150     C      0.833480000000     0.492440000000     0.983270000000     0.0304272  
C151     C      0.836440000000     0.536360000000     0.043130000000     0.338349   
C152     C      0.797930000000     0.515460000000     0.968370000000    -0.120839   
C153     C      0.710970000000     0.549960000000     0.037190000000    -0.0953286  
C154     C      0.799470000000     0.558190000000     0.029320000000    -0.196538   
C155     C      0.735360000000     0.525890000000     0.008400000000     0.0139787  
C156     C      0.774820000000     0.532090000000     0.002770000000     0.0727938  
C157     C      0.675040000000     0.503760000000     0.972800000000     0.00885926 
C158     C      0.713680000000     0.490780000000     0.991380000000    -0.0960959  
C159     C      0.173000000000     0.493060000000     0.050170000000     0.00692633 
C160     C      0.334970000000     0.500430000000     0.972730000000     0.0380867  
C161     C      0.337330000000     0.453200000000     0.031160000000     0.340891   
C162     C      0.293200000000     0.484390000000     0.969010000000    -0.125557   
C163     C      0.216860000000     0.502230000000     0.054520000000    -0.0923447  
C164     C      0.296360000000     0.468070000000     0.043020000000    -0.198144   
C165     C      0.236940000000     0.501910000000     0.014550000000     0.00432495 
C166     C      0.273300000000     0.485600000000     0.008960000000     0.0736783  
C167     C      0.177990000000     0.543220000000     0.994780000000     0.00913942 
C168     C      0.215260000000     0.522090000000     0.981090000000    -0.0937425  
C169     C      0.002000000000     0.484320000000     0.836160000000     0.00947212 
C170     C      0.980490000000     0.551200000000     0.674830000000     0.0309179  
C171     C      0.996920000000     0.478990000000     0.682480000000     0.340334   
C172     C      0.004120000000     0.561020000000     0.712010000000    -0.121724   
C173     C      0.977260000000     0.494380000000     0.800220000000    -0.0976385  
C174     C      0.019550000000     0.488040000000     0.720120000000    -0.196328   
C175     C      0.995670000000     0.528020000000     0.777720000000     0.0108464  
C176     C      0.004790000000     0.525600000000     0.738860000000     0.0743933  
C177     C      0.028450000000     0.553840000000     0.837670000000     0.00784388 
C178     C      0.003220000000     0.564650000000     0.801780000000    -0.0966346  
C179     C      0.000060000000     0.470830000000     0.177070000000     0.00889733 
C180     C      0.041760000000     0.534050000000     0.339670000000     0.031912   
C181     C      0.018730000000     0.463670000000     0.336690000000     0.341364   
C182     C      0.016570000000     0.544630000000     0.303850000000    -0.122347   
C183     C      0.025440000000     0.475440000000     0.213820000000    -0.0954106  
C184     C      0.994420000000     0.472890000000     0.300020000000    -0.196426   
C185     C      0.012080000000     0.510210000000     0.238390000000     0.00947549 
C186     C      0.010290000000     0.508590000000     0.278430000000     0.0761953  
C187     C      0.981860000000     0.542530000000     0.179780000000     0.00756996 
C188     C      0.007990000000     0.548530000000     0.216010000000    -0.0954206  
C189     C      0.980720000000     0.834630000000     0.542780000000     0.00643579 
C190     C      0.026820000000     0.673390000000     0.477560000000     0.0302937  
C191     C      0.959310000000     0.669310000000     0.507690000000     0.338027   
C192     C      0.035800000000     0.709770000000     0.502220000000    -0.120229   
C193     C      0.963160000000     0.796750000000     0.525370000000    -0.0951781  
C194     C      0.966760000000     0.707520000000     0.530670000000    -0.195473   
C195     C      0.994540000000     0.772040000000     0.505330000000     0.0118996  
C196     C      0.998260000000     0.732290000000     0.510970000000     0.0720501  
C197     C      0.037840000000     0.830210000000     0.495810000000     0.0075068  
C198     C      0.018920000000     0.794880000000     0.475820000000    -0.0951634  
C199     C      0.994070000000     0.327510000000     0.489690000000     0.00868356 
C200     C      0.057050000000     0.169340000000     0.534000000000     0.0287641  
C201     C      0.004480000000     0.175440000000     0.481480000000     0.341915   
C202     C      0.042390000000     0.207420000000     0.553310000000    -0.120312   
C203     C      0.019450000000     0.292450000000     0.478020000000    -0.0983849  
C204     C      0.988480000000     0.211680000000     0.502490000000    -0.196102   
C205     C      0.032430000000     0.270780000000     0.514700000000     0.0197653  
C206     C      0.021640000000     0.232930000000     0.523180000000     0.0750033  
C207     C      0.032610000000     0.333340000000     0.553160000000     0.00767403 
C208     C      0.056230000000     0.296450000000     0.542310000000    -0.099646   
C209     C      0.847210000000     0.035430000000     0.458990000000     0.00845739 
C210     C      0.687580000000     0.007000000000     0.529690000000     0.0307217  
C211     C      0.684560000000     0.987580000000     0.457750000000     0.340196   
C212     C      0.722260000000     0.033960000000     0.520920000000    -0.120843   
C213     C      0.808790000000     0.013910000000     0.449080000000    -0.0972623  
C214     C      0.719210000000     0.015070000000     0.448580000000    -0.196418   
C215     C      0.783320000000     0.010960000000     0.485460000000     0.0157848  
C216     C      0.744280000000     0.019630000000     0.485020000000     0.0729884  
C217     C      0.841590000000     0.014250000000     0.530010000000     0.0080141  
C218     C      0.803230000000     0.993010000000     0.521000000000    -0.0960657  
C219     C      0.346970000000     0.963220000000     0.530720000000     0.00892076 
C220     C      0.182740000000     0.993340000000     0.465670000000     0.0305876  
C221     C      0.184340000000     0.011940000000     0.537800000000     0.342404   
C222     C      0.221100000000     0.970480000000     0.470700000000    -0.12071    
C223     C      0.308760000000     0.984080000000     0.541590000000    -0.0955064  
C224     C      0.220990000000     0.986690000000     0.543940000000    -0.199884   
C225     C      0.283850000000     0.989630000000     0.505160000000     0.0113394  
C226     C      0.244150000000     0.984830000000     0.506040000000     0.0784805  
C227     C      0.344380000000     0.991330000000     0.462160000000     0.00843003 
C228     C      0.304300000000     0.009730000000     0.470950000000    -0.0954607  
C229     C      0.009420000000     0.847870000000     0.949750000000     0.00781236 
C230     C      0.982220000000     0.690190000000     0.030750000000     0.0301814  
C231     C      0.043720000000     0.687090000000     0.989450000000     0.338166   
C232     C      0.965510000000     0.721440000000     0.003210000000    -0.120725   
C233     C      0.029420000000     0.809530000000     0.963050000000    -0.0957924  
C234     C      0.028110000000     0.719980000000     0.962770000000    -0.194823   
C235     C      0.002470000000     0.784980000000     0.989030000000     0.0164359  
C236     C      0.998780000000     0.745090000000     0.985140000000     0.0712786  
C237     C      0.961770000000     0.843150000000     0.006030000000     0.00785055 
C238     C      0.983650000000     0.807790000000     0.022410000000    -0.0972094  
C239     C      0.002620000000     0.183280000000     0.051750000000     0.0112984  
C240     C      0.989540000000     0.347170000000     0.962800000000     0.0316293  
C241     C      0.044110000000     0.345260000000     0.011500000000     0.341494   
C242     C      0.971270000000     0.309530000000     0.979210000000    -0.117148   
C243     C      0.020730000000     0.221090000000     0.035680000000    -0.0943803  
C244     C      0.028300000000     0.307620000000     0.030310000000    -0.197411   
C245     C      0.992820000000     0.245440000000     0.010220000000     0.00815335 
C246     C      0.999200000000     0.285090000000     0.004550000000     0.0732884  
C247     C      0.948350000000     0.184900000000     0.003080000000     0.00982466 
C248     C      0.963560000000     0.222940000000     0.984560000000    -0.0940791  
C249     C      0.658660000000     0.995280000000     0.048770000000     0.0085803  
C250     C      0.819150000000     0.029900000000     0.979790000000     0.030643   
C251     C      0.824080000000     0.972270000000     0.026570000000     0.338232   
C252     C      0.783670000000     0.045090000000     0.002560000000    -0.121436   
C253     C      0.697940000000     0.975920000000     0.038190000000    -0.0962784  
C254     C      0.786620000000     0.986030000000     0.047690000000    -0.195415   
C255     C      0.722660000000     0.003150000000     0.012870000000     0.0153713  
C256     C      0.761480000000     0.010800000000     0.020330000000     0.0711854  
C257     C      0.663260000000     0.039220000000     0.989280000000     0.00931926 
C258     C      0.701100000000     0.018580000000     0.976930000000    -0.0974994  
C259     C      0.321460000000     0.029940000000     0.028500000000     0.00795372 
C260     C      0.162700000000     0.988910000000     0.974090000000     0.0285698  
C261     C      0.165270000000     0.041680000000     0.027290000000     0.338114   
C262     C      0.199490000000     0.970180000000     0.991790000000    -0.119283   
C263     C      0.284120000000     0.047880000000     0.011050000000    -0.10005    
C264     C      0.202960000000     0.022480000000     0.043020000000    -0.191334   
C265     C      0.259360000000     0.015290000000     0.993640000000     0.0276614  
C266     C      0.224560000000     0.002290000000     0.009600000000     0.068917   
C267     C      0.318820000000     0.976290000000     0.976390000000     0.00877535 
C268     C      0.281040000000     0.994930000000     0.960360000000    -0.10152    
C269     C      0.040420000000     0.008700000000     0.679190000000     0.00803211 
C270     C      0.963010000000     0.053500000000     0.833760000000     0.0315243  
C271     C      0.033950000000     0.032360000000     0.834370000000     0.341681   
C272     C      0.955420000000     0.029360000000     0.796350000000    -0.121361   
C273     C      0.031450000000     0.038580000000     0.711380000000    -0.0957286  
C274     C      0.027610000000     0.008230000000     0.797080000000    -0.19589    
C275     C      0.994590000000     0.026910000000     0.733460000000     0.00926189 
C276     C      0.993250000000     0.023980000000     0.773420000000     0.0752958  
C277     C      0.968620000000     0.990770000000     0.675200000000     0.00764571 
C278     C      0.958820000000     0.020610000000     0.707700000000    -0.096749   
C279     C      0.978580000000     0.969670000000     0.172740000000     0.00728907 
C280     C      0.019260000000     0.036220000000     0.332270000000     0.0302811  
C281     C      0.031860000000     0.963000000000     0.334450000000     0.340386   
C282     C      0.994150000000     0.031020000000     0.295480000000    -0.121332   
C283     C      0.003970000000     0.958240000000     0.208290000000    -0.0953394  
C284     C      0.006440000000     0.957130000000     0.297580000000    -0.197258   
C285     C      0.011680000000     0.994140000000     0.233460000000     0.0126925  
C286     C      0.006100000000     0.994360000000     0.273180000000     0.0758801  
C287     C      0.004060000000     0.039400000000     0.176120000000     0.00843124 
C288     C      0.029390000000     0.028560000000     0.211480000000    -0.0960867  
F1       F      0.445480000000     0.507800000000     0.827400000000    -0.43832    
F2       F      0.567530000000     0.499430000000     0.194180000000    -0.439439   
F3       F      0.522320000000     0.816900000000     0.558250000000    -0.439615   
F4       F      0.486980000000     0.185480000000     0.454700000000    -0.440456   
F5       F      0.561620000000     0.822770000000     0.978870000000    -0.440611   
F6       F      0.437950000000     0.193750000000     0.008030000000    -0.433674   
F7       F      0.501360000000     0.064330000000     0.815640000000    -0.438615   
F8       F      0.479680000000     0.934960000000     0.183100000000    -0.441071   
F9       F      0.696210000000     0.523610000000     0.557090000000    -0.441479   
F10      F      0.329600000000     0.538740000000     0.462630000000    -0.442075   
F11      F      0.825700000000     0.508040000000     0.070340000000    -0.43934    
F12      F      0.333870000000     0.417230000000     0.012440000000    -0.433569   
F13      F      0.959350000000     0.466920000000     0.692340000000    -0.443194   
F14      F      0.054630000000     0.448460000000     0.325110000000    -0.440141   
F15      F      0.938940000000     0.678190000000     0.473570000000    -0.438594   
F16      F      0.029140000000     0.187120000000     0.451280000000    -0.437714   
F17      F      0.698450000000     0.949650000000     0.462750000000    -0.43755    
F18      F      0.195360000000     0.050700000000     0.532010000000    -0.435768   
F19      F      0.068060000000     0.703450000000     0.017690000000    -0.441316   
F20      F      0.071560000000     0.335410000000     0.983060000000    -0.435383   
F21      F      0.814270000000     0.943230000000     0.999780000000    -0.439514   
F22      F      0.175240000000     0.073810000000     0.004390000000    -0.431586   
F23      F      0.048330000000     0.069000000000     0.824030000000    -0.437045   
F24      F      0.070990000000     0.965080000000     0.323500000000    -0.437625   
H1       H      0.460050000000     0.555200000000     0.733390000000     0.0581044  
H2       H      0.510720000000     0.453800000000     0.827940000000     0.0553772  
H3       H      0.569470000000     0.507250000000     0.694590000000     0.0392931  
H4       H      0.542080000000     0.454660000000     0.738210000000     0.050874   
H5       H      0.567280000000     0.478730000000     0.787760000000     0.0536108  
H6       H      0.474110000000     0.568840000000     0.790080000000     0.0917514  
H7       H      0.473650000000     0.561180000000     0.663310000000     0.0470318  
H8       H      0.553020000000     0.464700000000     0.857370000000     0.0410531  
H9       H      0.498150000000     0.454540000000     0.711390000000     0.0635287  
H10      H      0.518320000000     0.571880000000     0.816520000000     0.073656   
H11      H      0.555030000000     0.464200000000     0.667780000000     0.0472554  
H12      H      0.451680000000     0.510030000000     0.709490000000     0.0674761  
H13      H      0.569010000000     0.521680000000     0.816020000000     0.0590948  
H14      H      0.463870000000     0.554190000000     0.859600000000    -0.0017214  
H15      H      0.517310000000     0.569480000000     0.691510000000     0.0384063  
H16      H      0.564840000000     0.524890000000     0.284120000000     0.0675579  
H17      H      0.503920000000     0.442650000000     0.190060000000     0.0545423  
H18      H      0.449930000000     0.495150000000     0.332500000000     0.0406086  
H19      H      0.466790000000     0.440540000000     0.288010000000     0.0515082  
H20      H      0.448680000000     0.460040000000     0.233980000000     0.055573   
H21      H      0.536550000000     0.555000000000     0.239410000000     0.0898067  
H22      H      0.555470000000     0.536690000000     0.354900000000     0.0470591  
H23      H      0.460330000000     0.454950000000     0.163350000000     0.0438653  
H24      H      0.512380000000     0.433460000000     0.311210000000     0.0620346  
H25      H      0.492080000000     0.558020000000     0.213830000000     0.0728178  
H26      H      0.462250000000     0.451590000000     0.359400000000     0.0484062  
H27      H      0.565430000000     0.480660000000     0.310470000000     0.0671994  
H28      H      0.443260000000     0.506180000000     0.211240000000     0.0600924  
H29      H      0.545680000000     0.547890000000     0.167550000000    -0.00211475 
H30      H      0.512150000000     0.551240000000     0.328720000000     0.0378169  
H31      H      0.496910000000     0.732010000000     0.559330000000     0.0714777  
H32      H      0.578130000000     0.822420000000     0.493200000000     0.0596344  
H33      H      0.519550000000     0.679020000000     0.444920000000     0.0369897  
H34      H      0.576660000000     0.721200000000     0.458050000000     0.0530204  
H35      H      0.560390000000     0.776670000000     0.440570000000     0.0563478  
H36      H      0.464610000000     0.773180000000     0.527500000000     0.0885517  
H37      H      0.481120000000     0.661450000000     0.552530000000     0.0478054  
H38      H      0.563870000000     0.848370000000     0.449720000000     0.0474201  
H39      H      0.584740000000     0.699000000000     0.504190000000     0.0667124  
H40      H      0.462540000000     0.799180000000     0.483110000000     0.0734932  
H41      H      0.562240000000     0.650460000000     0.456080000000     0.0483876  
H42      H      0.539590000000     0.703280000000     0.558990000000     0.0705366  
H43      H      0.514180000000     0.799100000000     0.433810000000     0.0596174  
H44      H      0.473620000000     0.844220000000     0.537890000000    -0.00281227 
H45      H      0.466230000000     0.687080000000     0.508880000000     0.0383998  
H46      H      0.445790000000     0.295040000000     0.530170000000     0.0561512  
H47      H      0.560780000000     0.180870000000     0.489320000000     0.0545883  
H48      H      0.505320000000     0.332990000000     0.579000000000     0.0378905  
H49      H      0.550050000000     0.279810000000     0.568090000000     0.0467873  
H50      H      0.565670000000     0.222550000000     0.544750000000     0.0535399  
H51      H      0.441940000000     0.220070000000     0.507180000000     0.0924901  
H52      H      0.499480000000     0.328480000000     0.465320000000     0.0447142  
H53      H      0.569480000000     0.151310000000     0.531850000000     0.0396762  
H54      H      0.560740000000     0.294890000000     0.518230000000     0.0583313  
H55      H      0.456960000000     0.191010000000     0.547550000000     0.0758322  
H56      H      0.551660000000     0.351160000000     0.562310000000     0.0444696  
H57      H      0.456980000000     0.275760000000     0.481910000000     0.065992   
H58      H      0.531220000000     0.194860000000     0.573450000000     0.0591728  
H59      H      0.451070000000     0.151440000000     0.487830000000    -0.00207049 
H60      H      0.454250000000     0.348250000000     0.483060000000     0.0464159  
H61      H      0.521550000000     0.729340000000     0.064440000000     0.0499315  
H62      H      0.499460000000     0.824390000000     0.933840000000     0.0604234  
H63      H      0.422630000000     0.675950000000     0.025160000000     0.0349732  
H64      H      0.432170000000     0.723400000000     0.977050000000     0.0465579  
H65      H      0.453840000000     0.776530000000     0.950590000000     0.0548789  
H66      H      0.545810000000     0.780710000000     0.036630000000     0.0999208  
H67      H      0.520990000000     0.657040000000     0.070890000000     0.046671   
H68      H      0.454920000000     0.849660000000     0.945610000000     0.0405744  
H69      H      0.475490000000     0.700740000000     0.956800000000     0.0594768  
H70      H      0.503360000000     0.806220000000     0.055160000000     0.0807584  
H71      H      0.432890000000     0.650080000000     0.980470000000     0.0461827  
H72      H      0.541860000000     0.704230000000     0.022390000000     0.0642083  
H73      H      0.436140000000     0.801840000000     0.993550000000     0.0597523  
H74      H      0.549840000000     0.852310000000     0.029010000000     0.00120724 
H75      H      0.474660000000     0.681050000000     0.077620000000     0.0354992  
H76      H      0.463800000000     0.280670000000     0.047620000000     0.0686917  
H77      H      0.486630000000     0.186510000000     0.944330000000     0.0650465  
H78      H      0.578120000000     0.326400000000     0.017280000000     0.0356005  
H79      H      0.565580000000     0.280010000000     0.967940000000     0.0477361  
H80      H      0.545310000000     0.223650000000     0.950760000000     0.0563595  
H81      H      0.482210000000     0.225630000000     0.064150000000     0.0915968  
H82      H      0.477270000000     0.348860000000     0.061640000000     0.0535876  
H83      H      0.527880000000     0.154070000000     0.943870000000     0.0482463  
H84      H      0.521520000000     0.303650000000     0.950670000000     0.0636991  
H85      H      0.522310000000     0.194190000000     0.056970000000     0.0731098  
H86      H      0.567780000000     0.352940000000     0.973000000000     0.0458984  
H87      H      0.461290000000     0.307790000000     0.003630000000     0.0801671  
H88      H      0.563440000000     0.194960000000     0.991220000000     0.058276   
H89      H      0.460020000000     0.158670000000     0.050800000000    -0.00129772 
H90      H      0.521000000000     0.320700000000     0.070060000000     0.0372216  
H91      H      0.542650000000     0.057140000000     0.726320000000     0.062562   
H92      H      0.444760000000     0.000910000000     0.814450000000     0.0550783  
H93      H      0.508810000000     0.943940000000     0.682590000000     0.0414112  
H94      H      0.449920000000     0.966830000000     0.720380000000     0.0509356  
H95      H      0.467820000000     0.944670000000     0.773460000000     0.0549913  
H96      H      0.562170000000     0.033310000000     0.778360000000     0.0904106  
H97      H      0.556100000000     0.045280000000     0.655890000000     0.0457401  
H98      H      0.454000000000     0.957660000000     0.843120000000     0.0417729  
H99      H      0.449420000000     0.011080000000     0.693980000000     0.0625144  
H100     H      0.562280000000     0.988930000000     0.804450000000     0.0752629  
H101     H      0.467520000000     0.954950000000     0.651840000000     0.0494543  
H102     H      0.499850000000     0.061040000000     0.697980000000     0.0670626  
H103     H      0.510570000000     0.940340000000     0.801810000000     0.061832   
H104     H      0.546510000000     0.043540000000     0.848100000000    -0.00116768 
H105     H      0.567120000000     0.002400000000     0.684460000000     0.0379269  
H106     H      0.522690000000     0.945790000000     0.275470000000     0.0616495  
H107     H      0.426390000000     0.994680000000     0.178140000000     0.0583982  
H108     H      0.516760000000     0.064240000000     0.320520000000     0.0394133  
H109     H      0.460040000000     0.059150000000     0.280910000000     0.0498408  
H110     H      0.440320000000     0.044500000000     0.223850000000     0.0569443  
H111     H      0.541400000000     0.963780000000     0.220990000000     0.0908692  
H112     H      0.545410000000     0.957160000000     0.342230000000     0.0485328  
H113     H      0.435890000000     0.038970000000     0.151520000000     0.0431787  
H114     H      0.440550000000     0.017650000000     0.307100000000     0.0603842  
H115     H      0.543380000000     0.007970000000     0.194410000000     0.0737298  
H116     H      0.474680000000     0.061890000000     0.351920000000     0.0527644  
H117     H      0.482200000000     0.951750000000     0.306790000000     0.0664989  
H118     H      0.484300000000     0.060650000000     0.199340000000     0.0596223  
H119     H      0.527620000000     0.951740000000     0.152120000000    -0.00254259 
H120     H      0.559230000000     0.998390000000     0.312250000000     0.0372283  
H121     H      0.782710000000     0.501430000000     0.559440000000     0.0730261  
H122     H      0.692050000000     0.540330000000     0.475440000000     0.0576559  
H123     H      0.838200000000     0.431930000000     0.473430000000     0.0369308  
H124     H      0.789200000000     0.466210000000     0.435840000000     0.0485296  
H125     H      0.730970000000     0.496400000000     0.435270000000     0.0560584  
H126     H      0.736820000000     0.458610000000     0.558510000000     0.0924692  
H127     H      0.855680000000     0.500510000000     0.562090000000     0.0527063  
H128     H      0.660740000000     0.511580000000     0.444160000000     0.0405747  
H129     H      0.808730000000     0.513950000000     0.448270000000     0.0618265  
H130     H      0.707230000000     0.432520000000     0.524850000000     0.0738969  
H131     H      0.861840000000     0.465910000000     0.440550000000     0.0449698  
H132     H      0.804490000000     0.534640000000     0.525810000000     0.0741443  
H133     H      0.703560000000     0.453820000000     0.450570000000     0.0590343  
H134     H      0.665160000000     0.473610000000     0.564570000000    -0.00254209 
H135     H      0.835120000000     0.453630000000     0.550060000000     0.0382967  
H136     H      0.236500000000     0.524020000000     0.462380000000     0.0690238  
H137     H      0.334430000000     0.561120000000     0.542620000000     0.0558703  
H138     H      0.184370000000     0.455780000000     0.552750000000     0.0391199  
H139     H      0.231140000000     0.495630000000     0.587840000000     0.0475751  
H140     H      0.289830000000     0.525810000000     0.584930000000     0.0549645  
H141     H      0.281330000000     0.479970000000     0.464860000000     0.0950582  
H142     H      0.163580000000     0.518580000000     0.459560000000     0.050492   
H143     H      0.361750000000     0.531540000000     0.576770000000     0.0393649  
H144     H      0.209060000000     0.541020000000     0.571680000000     0.0561321  
H145     H      0.306790000000     0.452210000000     0.500620000000     0.0760931  
H146     H      0.158550000000     0.490820000000     0.582680000000     0.0427967  
H147     H      0.212420000000     0.557060000000     0.494520000000     0.0659637  
H148     H      0.312380000000     0.479020000000     0.574400000000     0.0597692  
H149     H      0.354400000000     0.484920000000     0.459700000000    -0.00173366 
H150     H      0.186770000000     0.473480000000     0.473410000000     0.0400464  
H151     H      0.724590000000     0.578660000000     0.044270000000     0.0516824  
H152     H      0.822930000000     0.466030000000     0.999370000000     0.0554201  
H153     H      0.681630000000     0.522990000000     0.947180000000     0.0347751  
H154     H      0.730170000000     0.473200000000     0.969730000000     0.0494865  
H155     H      0.781080000000     0.497240000000     0.947540000000     0.0535277  
H156     H      0.784180000000     0.567730000000     0.056380000000     0.0978281  
H157     H      0.652120000000     0.572740000000     0.044430000000     0.0498655  
H158     H      0.850670000000     0.482170000000     0.957460000000     0.0404231  
H159     H      0.707010000000     0.470240000000     0.015910000000     0.0664031  
H160     H      0.808140000000     0.584980000000     0.012770000000     0.0742345  
H161     H      0.659620000000     0.477260000000     0.961570000000     0.0451054  
H162     H      0.707500000000     0.533050000000     0.064930000000     0.0703765  
H163     H      0.808790000000     0.540580000000     0.950500000000     0.0593943  
H164     H      0.855400000000     0.557990000000     0.058580000000    -0.000877561
H165     H      0.674060000000     0.583490000000     0.997840000000     0.0369397  
H166     H      0.220550000000     0.531790000000     0.067920000000     0.0554264  
H167     H      0.350420000000     0.496420000000     0.944180000000     0.0522396  
H168     H      0.186510000000     0.569580000000     0.012130000000     0.0405803  
H169     H      0.234450000000     0.544620000000     0.967290000000     0.0490396  
H170     H      0.294230000000     0.453450000000     0.958640000000     0.101586   
H171     H      0.279890000000     0.442960000000     0.055840000000     0.103947   
H172     H      0.169250000000     0.461510000000     0.042470000000     0.051795   
H173     H      0.333820000000     0.532610000000     0.978420000000     0.0336937  
H174     H      0.207090000000     0.499790000000     0.958640000000     0.0614813  
H175     H      0.300130000000     0.490970000000     0.066050000000     0.0743571  
H176     H      0.161910000000     0.553820000000     0.968390000000     0.0488759  
H177     H      0.229090000000     0.480540000000     0.075480000000     0.0510936  
H178     H      0.278060000000     0.501230000000     0.945680000000     0.0587744  
H179     H      0.354410000000     0.448280000000     0.058590000000    -0.000710708
H180     H      0.158310000000     0.497540000000     0.079040000000     0.0458626  
H181     H      0.972070000000     0.467710000000     0.782240000000     0.0712348  
H182     H      0.949000000000     0.548040000000     0.682910000000     0.0573326  
H183     H      0.058430000000     0.545880000000     0.827400000000     0.0376096  
H184     H      0.019290000000     0.587580000000     0.785050000000     0.0458422  
H185     H      0.989900000000     0.586860000000     0.726000000000     0.0534535  
H186     H      0.018980000000     0.462190000000     0.739920000000     0.0937612  
H187     H      0.986320000000     0.461880000000     0.853990000000     0.0476433  
H188     H      0.983020000000     0.576300000000     0.654020000000     0.0378063  
H189     H      0.974760000000     0.577200000000     0.811690000000     0.0557693  
H190     H      0.050940000000     0.492500000000     0.712350000000     0.0755115  
H191     H      0.031060000000     0.580200000000     0.856850000000     0.0423658  
H192     H      0.947800000000     0.504040000000     0.810440000000     0.0657463  
H193     H      0.034680000000     0.569120000000     0.703910000000     0.0571426  
H194     H      0.011590000000     0.454000000000     0.667390000000    -0.00197701 
H195     H      0.029890000000     0.470750000000     0.825880000000     0.0378669  
H196     H      0.026250000000     0.447180000000     0.229860000000     0.0657058  
H197     H      0.072000000000     0.527050000000     0.329470000000     0.0590541  
H198     H      0.951300000000     0.536770000000     0.189770000000     0.0425531  
H199     H      0.993930000000     0.571830000000     0.234020000000     0.0494375  
H200     H      0.032360000000     0.568300000000     0.287870000000     0.0573823  
H201     H      0.992010000000     0.446110000000     0.281740000000     0.0948759  
H202     H      0.012950000000     0.447630000000     0.158040000000     0.0483308  
H203     H      0.043600000000     0.560310000000     0.359020000000     0.0433903  
H204     H      0.037520000000     0.558930000000     0.206770000000     0.0597082  
H205     H      0.963960000000     0.479850000000     0.309480000000     0.0772192  
H206     H      0.981690000000     0.570270000000     0.162510000000     0.0489129  
H207     H      0.056150000000     0.481170000000     0.204370000000     0.067931   
H208     H      0.987660000000     0.556190000000     0.313660000000     0.0627416  
H209     H      0.003280000000     0.440500000000     0.353750000000    -0.000893286
H210     H      0.970520000000     0.460450000000     0.186380000000     0.0391377  
H211     H      0.948890000000     0.781430000000     0.550300000000     0.0498355  
H212     H      0.015890000000     0.682990000000     0.448280000000     0.0570982  
H213     H      0.058820000000     0.819480000000     0.518460000000     0.0345963  
H214     H      0.041560000000     0.777810000000     0.460100000000     0.0511554  
H215     H      0.059360000000     0.726840000000     0.487940000000     0.053838   
H216     H      0.937990000000     0.722610000000     0.532440000000     0.098449   
H217     H      0.956200000000     0.853930000000     0.552350000000     0.0462992  
H218     H      0.054610000000     0.656940000000     0.472830000000     0.0415098  
H219     H      0.998880000000     0.805790000000     0.452420000000     0.0649983  
H220     H      0.976340000000     0.700330000000     0.561080000000     0.0730626  
H221     H      0.054970000000     0.846700000000     0.473430000000     0.0481616  
H222     H      0.940140000000     0.804410000000     0.503520000000     0.0649222  
H223     H      0.048460000000     0.700000000000     0.530720000000     0.0588202  
H224     H      0.940010000000     0.650370000000     0.525980000000     0.000306596
H225     H      0.997730000000     0.826660000000     0.569540000000     0.0345744  
H226     H      0.004390000000     0.274210000000     0.455760000000     0.0719758  
H227     H      0.082590000000     0.176640000000     0.514960000000     0.0629751  
H228     H      0.008370000000     0.324480000000     0.573210000000     0.0389566  
H229     H      0.064260000000     0.282200000000     0.570370000000     0.0509164  
H230     H      0.068450000000     0.221290000000     0.566780000000     0.0583572  
H231     H      0.970940000000     0.229850000000     0.482070000000     0.0891097  
H232     H      0.985820000000     0.343690000000     0.462540000000     0.0494401  
H233     H      0.067970000000     0.149530000000     0.557570000000     0.0485617  
H234     H      0.083920000000     0.305290000000     0.527430000000     0.0631332  
H235     H      0.967150000000     0.201760000000     0.525180000000     0.0733092  
H236     H      0.052120000000     0.353400000000     0.569990000000     0.0487015  
H237     H      0.046080000000     0.303710000000     0.462820000000     0.0725779  
H238     H      0.021510000000     0.200110000000     0.577340000000     0.0598982  
H239     H      0.979190000000     0.159640000000     0.468190000000    -0.00323568 
H240     H      0.966570000000     0.316500000000     0.503500000000     0.036155   
H241     H      0.794280000000     0.030830000000     0.425230000000     0.0487684  
H242     H      0.699240000000     0.978360000000     0.540280000000     0.0551194  
H243     H      0.834390000000     0.044040000000     0.541340000000     0.0325149  
H244     H      0.784730000000     0.992190000000     0.547750000000     0.0523794  
H245     H      0.740870000000     0.037480000000     0.547410000000     0.0527833  
H246     H      0.735490000000     0.002250000000     0.423390000000     0.0949     
H247     H      0.866900000000     0.033970000000     0.432940000000     0.0434057  
H248     H      0.670050000000     0.019890000000     0.554050000000     0.0406487  
H249     H      0.810080000000     0.961860000000     0.513960000000     0.0691751  
H250     H      0.707950000000     0.044360000000     0.439510000000     0.0734828  
H251     H      0.857100000000     0.998320000000     0.553940000000     0.0444003  
H252     H      0.815390000000     0.983900000000     0.437990000000     0.0645834  
H253     H      0.710670000000     0.063780000000     0.514340000000     0.0594584  
H254     H      0.664670000000     0.987660000000     0.431820000000    -0.00326411 
H255     H      0.840480000000     0.066900000000     0.464710000000     0.0362955  
H256     H      0.293900000000     0.965370000000     0.563850000000     0.0484893  
H257     H      0.189990000000     0.022960000000     0.453930000000     0.0599812  
H258     H      0.339350000000     0.962700000000     0.447210000000     0.03522    
H259     H      0.286810000000     0.010240000000     0.443530000000     0.054307   
H260     H      0.237770000000     0.971250000000     0.442770000000     0.0580042  
H261     H      0.237880000000     0.000280000000     0.568340000000     0.0965186  
H262     H      0.365430000000     0.961260000000     0.557620000000     0.0451967  
H263     H      0.164390000000     0.978340000000     0.443190000000     0.0493987  
H264     H      0.308980000000     0.040980000000     0.479250000000     0.0697964  
H265     H      0.212380000000     0.956490000000     0.552940000000     0.0742167  
H266     H      0.360480000000     0.010480000000     0.441150000000     0.0470197  
H267     H      0.315270000000     0.013160000000     0.554970000000     0.0640079  
H268     H      0.213720000000     0.939080000000     0.475810000000     0.0612718  
H269     H      0.166630000000     0.010480000000     0.565260000000    -0.00383715 
H270     H      0.340080000000     0.932760000000     0.521040000000     0.0365766  
H271     H      0.037800000000     0.794130000000     0.935600000000     0.0488209  
H272     H      0.996880000000     0.705070000000     0.055900000000     0.0569186  
H273     H      0.937510000000     0.832530000000     0.986860000000     0.0408999  
H274     H      0.963810000000     0.790830000000     0.041630000000     0.052022   
H275     H      0.942630000000     0.738760000000     0.018330000000     0.0547939  
H276     H      0.054120000000     0.736350000000     0.952170000000     0.0942778  
H277     H      0.031880000000     0.867100000000     0.935900000000     0.0448819  
H278     H      0.957550000000     0.672440000000     0.042670000000     0.0416516  
H279     H      0.007450000000     0.818490000000     0.042060000000     0.0665737  
H280     H      0.013320000000     0.706860000000     0.936760000000     0.072647   
H281     H      0.948260000000     0.859410000000     0.030920000000     0.0509541  
H282     H      0.056610000000     0.816580000000     0.979690000000     0.0651378  
H283     H      0.949710000000     0.706260000000     0.978960000000     0.0597198  
H284     H      0.062020000000     0.667230000000     0.971120000000    -0.00159503 
H285     H      0.987430000000     0.840480000000     0.926720000000     0.0359951  
H286     H      0.030360000000     0.237540000000     0.062130000000     0.051899   
H287     H      0.009550000000     0.339080000000     0.938230000000     0.0638385  
H288     H      0.926750000000     0.192700000000     0.026360000000     0.0332865  
H289     H      0.936870000000     0.240610000000     0.978520000000     0.0469696  
H290     H      0.961200000000     0.293000000000     0.952980000000     0.0563974  
H291     H      0.054720000000     0.289860000000     0.037170000000     0.103427   
H292     H      0.026340000000     0.165040000000     0.064810000000     0.0504026  
H293     H      0.965740000000     0.365600000000     0.950140000000     0.0422923  
H294     H      0.977980000000     0.215920000000     0.956100000000     0.0648742  
H295     H      0.013470000000     0.315180000000     0.058420000000     0.0773001  
H296     H      0.932380000000     0.167870000000     0.980230000000     0.0459197  
H297     H      0.047060000000     0.213600000000     0.017890000000     0.0731224  
H298     H      0.945180000000     0.317310000000     0.997220000000     0.0597939  
H299     H      0.059650000000     0.362250000000     0.034670000000     0.000859429
H300     H      0.982080000000     0.191190000000     0.075950000000     0.0340742  
H301     H      0.711820000000     0.968510000000     0.066660000000     0.0512779  
H302     H      0.808630000000     0.012300000000     0.954320000000     0.0545477  
H303     H      0.670980000000     0.065960000000     0.006430000000     0.0331073  
H304     H      0.718270000000     0.038110000000     0.957570000000     0.0501068  
H305     H      0.766120000000     0.065020000000     0.983930000000     0.0526172  
H306     H      0.771980000000     0.959080000000     0.058400000000     0.0970675  
H307     H      0.639950000000     0.973040000000     0.063660000000     0.0486052  
H308     H      0.835530000000     0.055570000000     0.968000000000     0.0400619  
H309     H      0.693210000000     0.992980000000     0.958210000000     0.0671652  
H310     H      0.794750000000     0.003950000000     0.073770000000     0.0724892  
H311     H      0.647460000000     0.048820000000     0.962350000000     0.0454708  
H312     H      0.692510000000     0.948150000000     0.021880000000     0.0705302  
H313     H      0.794450000000     0.063910000000     0.027020000000     0.0582402  
H314     H      0.843600000000     0.958730000000     0.048990000000    -0.00199195 
H315     H      0.664440000000     0.019040000000     0.070490000000     0.0334085  
H316     H      0.269510000000     0.066480000000     0.033160000000     0.0694315  
H317     H      0.171490000000     0.007460000000     0.948640000000     0.0579217  
H318     H      0.310730000000     0.951280000000     0.995810000000     0.0366339  
H319     H      0.264160000000     0.972750000000     0.943900000000     0.0516196  
H320     H      0.213970000000     0.951450000000     0.969700000000     0.0538271  
H321     H      0.220130000000     0.044140000000     0.059910000000     0.0936275  
H322     H      0.340170000000     0.054330000000     0.039510000000     0.0540943  
H323     H      0.143810000000     0.964910000000     0.962530000000     0.0428806  
H324     H      0.289270000000     0.017330000000     0.938010000000     0.0669404  
H325     H      0.194500000000     0.999850000000     0.065050000000     0.0740774  
H326     H      0.335730000000     0.964110000000     0.951220000000     0.0462884  
H327     H      0.292690000000     0.068480000000     0.987160000000     0.0768073  
H328     H      0.190320000000     0.949570000000     0.015460000000     0.0593215  
H329     H      0.148200000000     0.052650000000     0.052910000000     0.000384218
H330     H      0.313250000000     0.011600000000     0.054290000000     0.0386875  
H331     H      0.057590000000     0.042970000000     0.730220000000     0.0676424  
H332     H      0.969790000000     0.084290000000     0.825130000000     0.0596492  
H333     H      0.972540000000     0.961350000000     0.688920000000     0.0352555  
H334     H      0.933360000000     0.008760000000     0.724260000000     0.0464624  
H335     H      0.932980000000     0.045520000000     0.779020000000     0.0549735  
H336     H      0.055560000000     0.006300000000     0.780620000000     0.0934273  
H337     H      0.065980000000     0.019130000000     0.661770000000     0.0487926  
H338     H      0.935630000000     0.053920000000     0.851570000000     0.0407554  
H339     H      0.950030000000     0.049050000000     0.694270000000     0.0565954  
H340     H      0.020430000000     0.977580000000     0.805820000000     0.0754651  
H341     H      0.943170000000     0.988960000000     0.654810000000     0.0434019  
H342     H      0.025960000000     0.067520000000     0.697240000000     0.0669963  
H343     H      0.943370000000     0.000080000000     0.804330000000     0.0590971  
H344     H      0.056760000000     0.017600000000     0.852490000000     0.000578067
H345     H      0.049110000000     0.980600000000     0.693450000000     0.034699   
H346     H      0.987780000000     0.934940000000     0.224370000000     0.0492291  
H347     H      0.049520000000     0.044210000000     0.322940000000     0.0598906  
H348     H      0.976140000000     0.052310000000     0.187110000000     0.0336469  
H349     H      0.034680000000     0.054910000000     0.229810000000     0.0542292  
H350     H      0.994870000000     0.058320000000     0.277820000000     0.0561516  
H351     H      0.018940000000     0.931740000000     0.281340000000     0.0972447  
H352     H      0.976330000000     0.943740000000     0.152960000000     0.0454867  
H353     H      0.007540000000     0.061310000000     0.349590000000     0.0481403  
H354     H      0.058780000000     0.019420000000     0.200590000000     0.0670057  
H355     H      0.975890000000     0.949690000000     0.306330000000     0.0741309  
H356     H      0.019350000000     0.062570000000     0.158920000000     0.0467305  
H357     H      0.032390000000     0.945870000000     0.198050000000     0.0631309  
H358     H      0.963060000000     0.027380000000     0.304750000000     0.0605284  
H359     H      0.028140000000     0.936650000000     0.353420000000    -0.00291921 
H360     H      0.948490000000     0.976800000000     0.183270000000     0.036646   
N1       N      0.504520000000     0.505480000000     0.862270000000    -0.189986   
N2       N      0.517380000000     0.515030000000     0.661350000000    -0.162945   
N3       N      0.507380000000     0.497800000000     0.161220000000    -0.190423   
N4       N      0.505000000000     0.498510000000     0.361260000000    -0.163098   
N5       N      0.522830000000     0.850450000000     0.498250000000    -0.190058   
N6       N      0.517120000000     0.651960000000     0.500980000000    -0.162869   
N7       N      0.511360000000     0.147660000000     0.506520000000    -0.191492   
N8       N      0.503940000000     0.355260000000     0.521090000000    -0.163035   
N9       N      0.501950000000     0.855010000000     0.987680000000    -0.191598   
N10      N      0.478640000000     0.649700000000     0.024290000000    -0.162782   
N11      N      0.491550000000     0.152620000000     0.996150000000    -0.190427   
N12      N      0.523290000000     0.355100000000     0.018160000000    -0.162564   
N13      N      0.496210000000     0.004730000000     0.849380000000    -0.189953   
N14      N      0.515590000000     0.996690000000     0.650010000000    -0.1625     
N15      N      0.480380000000     0.993800000000     0.147730000000    -0.192154   
N16      N      0.512030000000     0.010490000000     0.351040000000    -0.162667   
N17      N      0.659560000000     0.496790000000     0.505830000000    -0.192035   
N18      N      0.862750000000     0.481410000000     0.501910000000    -0.16242    
N19      N      0.361930000000     0.511740000000     0.516600000000    -0.191981   
N20      N      0.157160000000     0.501320000000     0.520350000000    -0.162735   
N21      N      0.857100000000     0.516960000000     0.010140000000    -0.1909     
N22      N      0.651400000000     0.525970000000     0.001550000000    -0.162539   
N23      N      0.357280000000     0.481150000000     0.004570000000    -0.192063   
N24      N      0.153820000000     0.517360000000     0.019790000000    -0.161624   
N25      N      0.994270000000     0.514100000000     0.657090000000    -0.192934   
N26      N      0.011450000000     0.520040000000     0.858910000000    -0.164018   
N27      N      0.025450000000     0.499520000000     0.360180000000    -0.191706   
N28      N      0.995620000000     0.508710000000     0.156440000000    -0.16202    
N29      N      0.996390000000     0.649410000000     0.497010000000    -0.190928   
N30      N      0.007480000000     0.854530000000     0.514990000000    -0.162582   
N31      N      0.026600000000     0.150470000000     0.509330000000    -0.190318   
N32      N      0.015220000000     0.352540000000     0.518190000000    -0.162699   
N33      N      0.663940000000     0.000060000000     0.493920000000    -0.191108   
N34      N      0.865840000000     0.018480000000     0.494270000000    -0.16383    
N35      N      0.161810000000     0.998210000000     0.503390000000    -0.191585   
N36      N      0.366960000000     0.984090000000     0.498470000000    -0.16366    
N37      N      0.011250000000     0.666120000000     0.009370000000    -0.191207   
N38      N      0.988880000000     0.867460000000     0.982520000000    -0.162954   
N39      N      0.012260000000     0.367860000000     0.993120000000    -0.192125   
N40      N      0.980550000000     0.162550000000     0.021040000000    -0.16239    
N41      N      0.843640000000     0.004780000000     0.005370000000    -0.191767   
N42      N      0.639390000000     0.012870000000     0.014060000000    -0.163623   
N43      N      0.141950000000     0.013850000000     0.003240000000    -0.189095   
N44      N      0.342160000000     0.004890000000     0.999440000000    -0.161623   
N45      N      0.996600000000     0.037300000000     0.855800000000    -0.191664   
N46      N      0.005280000000     0.001710000000     0.654770000000    -0.164235   
N47      N      0.021000000000     0.999480000000     0.355320000000    -0.190573   
N48      N      0.994770000000     0.004340000000     0.152260000000    -0.163686   
O1       O      0.992540000000     0.015140000000     0.003290000000    -0.368552   
O2       O      0.975250000000     0.981550000000     0.092160000000    -0.302798   
O3       O      0.083620000000     0.038190000000     0.027040000000    -0.289876   
O4       O      0.013000000000     0.928250000000     0.966150000000    -0.301792   
O5       O      0.014650000000     0.033230000000     0.094930000000    -0.301559   
O6       O      0.972370000000     0.922740000000     0.016570000000    -0.302052   
O7       O      0.082510000000     0.992960000000     0.980280000000    -0.303118   
O8       O      0.966910000000     0.046010000000     0.915440000000    -0.300123   
O9       O      0.011830000000     0.104330000000     0.033100000000    -0.295617   
O10      O      0.019580000000     0.008030000000     0.911640000000    -0.301428   
O11      O      0.962110000000     0.105210000000     0.991150000000    -0.299818   
O12      O      0.900210000000     0.033360000000     0.983100000000    -0.305992   
O13      O      0.904290000000     0.985910000000     0.027310000000    -0.299474   
O14      O      0.013250000000     0.002620000000     0.505030000000    -0.370048   
O15      O      0.003030000000     0.029760000000     0.412630000000    -0.299584   
O16      O      0.102420000000     0.978360000000     0.478860000000    -0.298717   
O17      O      0.042860000000     0.089240000000     0.532000000000    -0.297875   
O18      O      0.031910000000     0.971640000000     0.415440000000    -0.293203   
O19      O      0.000060000000     0.094510000000     0.483230000000    -0.295451   
O20      O      0.104040000000     0.016600000000     0.531510000000    -0.292723   
O21      O      0.980720000000     0.985610000000     0.594400000000    -0.304779   
O22      O      0.033390000000     0.910990000000     0.489410000000    -0.301624   
O23      O      0.036170000000     0.019160000000     0.597730000000    -0.302073   
O24      O      0.982300000000     0.915340000000     0.529600000000    -0.30064    
O25      O      0.919980000000     0.990830000000     0.522440000000    -0.303185   
O26      O      0.927850000000     0.031900000000     0.472420000000    -0.302027   
O27      O      0.005800000000     0.516430000000     0.007770000000    -0.368642   
O28      O      0.031640000000     0.542490000000     0.918800000000    -0.303049   
O29      O      0.983460000000     0.426970000000     0.979110000000    -0.303075   
O30      O      0.093650000000     0.494220000000     0.038430000000    -0.297178   
O31      O      0.985900000000     0.496240000000     0.916170000000    -0.302257   
O32      O      0.097210000000     0.537650000000     0.989980000000    -0.298916   
O33      O      0.030680000000     0.424850000000     0.023630000000    -0.29947    
O34      O      0.983950000000     0.540040000000     0.098250000000    -0.297219   
O35      O      0.915070000000     0.495550000000     0.983250000000    -0.302412   
O36      O      0.018130000000     0.484650000000     0.097830000000    -0.29961    
O37      O      0.916670000000     0.539390000000     0.031410000000    -0.299765   
O38      O      0.983910000000     0.608270000000     0.030430000000    -0.304272   
O39      O      0.033270000000     0.606410000000     0.988360000000    -0.304618   
O40      O      0.009370000000     0.501130000000     0.508890000000    -0.3696     
O41      O      0.032330000000     0.413640000000     0.540320000000    -0.299768   
O42      O      0.924100000000     0.471770000000     0.476540000000    -0.299982   
O43      O      0.980920000000     0.534620000000     0.594660000000    -0.3034     
O44      O      0.994780000000     0.408770000000     0.487470000000    -0.29919    
O45      O      0.019980000000     0.483400000000     0.603280000000    -0.3045     
O46      O      0.916870000000     0.511360000000     0.527880000000    -0.295349   
O47      O      0.031260000000     0.592530000000     0.487820000000    -0.303797   
O48      O      0.000210000000     0.472890000000     0.416570000000    -0.300876   
O49      O      0.973530000000     0.589630000000     0.517630000000    -0.298765   
O50      O      0.037310000000     0.526080000000     0.420650000000    -0.301605   
O51      O      0.100420000000     0.522770000000     0.491650000000    -0.299502   
O52      O      0.096800000000     0.484630000000     0.544490000000    -0.301205   
O53      O      0.491280000000     0.003360000000     0.998850000000    -0.367681   
O54      O      0.400340000000     0.980180000000     0.975760000000    -0.296988   
O55      O      0.464880000000     0.023720000000     0.089480000000    -0.304888   
O56      O      0.519190000000     0.913470000000     0.016000000000    -0.297112   
O57      O      0.401710000000     0.027970000000     0.019950000000    -0.296492   
O58      O      0.471410000000     0.912950000000     0.971830000000    -0.301909   
O59      O      0.507180000000     0.974430000000     0.089210000000    -0.300076   
O60      O      0.582720000000     0.029020000000     0.981620000000    -0.302366   
O61      O      0.470530000000     0.094630000000     0.023210000000    -0.296284   
O62      O      0.580110000000     0.985820000000     0.030100000000    -0.301337   
O63      O      0.513020000000     0.093050000000     0.974030000000    -0.302223   
O64      O      0.518950000000     0.024690000000     0.909340000000    -0.297548   
O65      O      0.469190000000     0.982930000000     0.907190000000    -0.30007    
O66      O      0.515150000000     0.999160000000     0.500130000000    -0.369301   
O67      O      0.484750000000     0.089070000000     0.486950000000    -0.293031   
O68      O      0.538980000000     0.021200000000     0.591630000000    -0.300789   
O69      O      0.427150000000     0.970810000000     0.524320000000    -0.305824   
O70      O      0.539360000000     0.088630000000     0.522560000000    -0.304613   
O71      O      0.422820000000     0.014050000000     0.475900000000    -0.300018   
O72      O      0.494350000000     0.974090000000     0.590520000000    -0.300815   
O73      O      0.540920000000     0.910410000000     0.473560000000    -0.29969    
O74      O      0.606410000000     0.018850000000     0.523110000000    -0.304159   
O75      O      0.497880000000     0.907950000000     0.522240000000    -0.297394   
O76      O      0.604240000000     0.981810000000     0.469590000000    -0.291971   
O77      O      0.532980000000     0.980150000000     0.407240000000    -0.301189   
O78      O      0.491600000000     0.029990000000     0.412090000000    -0.297415   
O79      O      0.504550000000     0.503190000000     0.011770000000    -0.367868   
O80      O      0.412950000000     0.513060000000     0.985110000000    -0.301264   
O81      O      0.492340000000     0.411700000000     0.036300000000    -0.297315   
O82      O      0.527360000000     0.481090000000     0.920770000000    -0.302631   
O83      O      0.416980000000     0.468910000000     0.032730000000    -0.295163   
O84      O      0.481780000000     0.527460000000     0.921630000000    -0.296886   
O85      O      0.538760000000     0.414830000000     0.990970000000    -0.298729   
O86      O      0.591850000000     0.539360000000     0.030020000000    -0.296652   
O87      O      0.483150000000     0.478130000000     0.101790000000    -0.305886   
O88      O      0.595740000000     0.492050000000     0.985490000000    -0.302522   
O89      O      0.529090000000     0.524080000000     0.102980000000    -0.294239   
O90      O      0.513410000000     0.594430000000     0.040330000000    -0.301894   
O91      O      0.467950000000     0.590580000000     0.993970000000    -0.301598   
O92      O      0.510650000000     0.503570000000     0.511480000000    -0.366421   
O93      O      0.418350000000     0.485810000000     0.490770000000    -0.299649   
O94      O      0.493360000000     0.534630000000     0.601670000000    -0.302883   
O95      O      0.529120000000     0.414540000000     0.540340000000    -0.302354   
O96      O      0.422580000000     0.529980000000     0.538500000000    -0.302451   
O97      O      0.483760000000     0.413290000000     0.493490000000    -0.29999    
O98      O      0.535910000000     0.485740000000     0.603640000000    -0.300056   
O99      O      0.600740000000     0.518430000000     0.482240000000    -0.30381    
O100     O      0.492040000000     0.596060000000     0.528780000000    -0.299099   
O101     O      0.601190000000     0.479560000000     0.534480000000    -0.300864   
O102     O      0.537500000000     0.590690000000     0.482560000000    -0.300404   
O103     O      0.531030000000     0.521500000000     0.418720000000    -0.304342   
O104     O      0.483550000000     0.477460000000     0.421610000000    -0.298804   
Zn1      Zn     0.962460000000     0.977670000000     0.034420000000     0.4569     
Zn2      Zn     0.025370000000     0.046920000000     0.038140000000     0.454788   
Zn3      Zn     0.025750000000     0.986540000000     0.966460000000     0.457728   
Zn4      Zn     0.956450000000     0.048760000000     0.973860000000     0.456308   
Zn5      Zn     0.986840000000     0.038620000000     0.469150000000     0.455563   
Zn6      Zn     0.044240000000     0.966730000000     0.473130000000     0.457635   
Zn7      Zn     0.047890000000     0.030780000000     0.540840000000     0.460379   
Zn8      Zn     0.974830000000     0.974200000000     0.536570000000     0.45071    
Zn9      Zn     0.040940000000     0.549370000000     0.976870000000     0.458776   
Zn10     Zn     0.972820000000     0.484930000000     0.972830000000     0.453742   
Zn11     Zn     0.035960000000     0.481020000000     0.041250000000     0.457393   
Zn12     Zn     0.973860000000     0.550550000000     0.040820000000     0.456007   
Zn13     Zn     0.038830000000     0.471830000000     0.548340000000     0.454982   
Zn14     Zn     0.983010000000     0.465000000000     0.472880000000     0.455647   
Zn15     Zn     0.971230000000     0.533460000000     0.536230000000     0.457491   
Zn16     Zn     0.043850000000     0.535070000000     0.478710000000     0.455781   
Zn17     Zn     0.458350000000     0.970720000000     0.964610000000     0.451926   
Zn18     Zn     0.458660000000     0.036960000000     0.032000000000     0.457103   
Zn19     Zn     0.523360000000     0.970080000000     0.032540000000     0.458747   
Zn20     Zn     0.525730000000     0.036010000000     0.966750000000     0.459227   
Zn21     Zn     0.479250000000     0.032310000000     0.470070000000     0.453587   
Zn22     Zn     0.549210000000     0.031000000000     0.533570000000     0.451182   
Zn23     Zn     0.484700000000     0.964260000000     0.533410000000     0.46124    
Zn24     Zn     0.546990000000     0.968600000000     0.463520000000     0.458794   
Zn25     Zn     0.468240000000     0.533110000000     0.978970000000     0.456681   
Zn26     Zn     0.474730000000     0.467100000000     0.044600000000     0.462609   
Zn27     Zn     0.540280000000     0.473060000000     0.978280000000     0.453971   
Zn28     Zn     0.534330000000     0.539110000000     0.045400000000     0.451784   
Zn29     Zn     0.475070000000     0.470770000000     0.480170000000     0.450539   
Zn30     Zn     0.480560000000     0.539940000000     0.544160000000     0.455944   
Zn31     Zn     0.543360000000     0.471750000000     0.546480000000     0.452235   
Zn32     Zn     0.544040000000     0.532540000000     0.475030000000     0.458841   


