data_structure

_audit_creation_method RASPA-1.0
_audit_creation_date 2023-5-25
_audit_author_name 'Poobodin Mano'

_cell_length_a    42.5682
_cell_length_b    42.6597
_cell_length_c    42.6683
_cell_angle_alpha 90
_cell_angle_beta  90
_cell_angle_gamma 90
_cell_volume      77483.4

_symmetry_cell_setting          triclinic
_symmetry_space_group_name_Hall 'P 1'
_symmetry_space_group_name_H-M  'P 1'
_symmetry_Int_Tables_number     1

_symmetry_equiv_pos_as_xyz 'x,y,z'

loop_
_atom_site_label
_atom_site_type_symbol
_atom_site_fract_x
_atom_site_fract_y
_atom_site_fract_z
_atom_site_charge
C1       C      0.000400000000     0.989950000000     0.074570000000     0.371252   
C2       C      0.086620000000     0.007370000000     0.990400000000     0.363864   
C3       C      0.005710000000     0.909010000000     0.989750000000     0.367583   
C4       C      0.006120000000     0.992280000000     0.901480000000     0.362218   
C5       C      0.990990000000     0.081700000000     0.989240000000     0.360495   
C6       C      0.912990000000     0.993650000000     0.985470000000     0.360067   
C7       C      0.984980000000     0.989810000000     0.401050000000     0.366293   
C8       C      0.993160000000     0.897750000000     0.483450000000     0.370581   
C9       C      0.076800000000     0.986740000000     0.480130000000     0.369185   
C10      C      0.996630000000     0.980230000000     0.574410000000     0.366282   
C11      C      0.903210000000     0.979790000000     0.493430000000     0.366687   
C12      C      0.984330000000     0.071560000000     0.491400000000     0.365835   
C13      C      0.007670000000     0.408180000000     0.991640000000     0.376117   
C14      C      0.006880000000     0.496700000000     0.082170000000     0.365371   
C15      C      0.090060000000     0.492430000000     0.996300000000     0.368218   
C16      C      0.002510000000     0.581010000000     0.991590000000     0.361526   
C17      C      0.916720000000     0.486720000000     0.000930000000     0.36762    
C18      C      0.999680000000     0.500040000000     0.908900000000     0.36259    
C19      C      0.993810000000     0.398440000000     0.499790000000     0.363879   
C20      C      0.985690000000     0.487210000000     0.408990000000     0.364839   
C21      C      0.902120000000     0.480870000000     0.489630000000     0.364896   
C22      C      0.987310000000     0.571370000000     0.503210000000     0.36081    
C23      C      0.075430000000     0.485660000000     0.491610000000     0.363488   
C24      C      0.986990000000     0.482480000000     0.582300000000     0.36864    
C25      C      0.412780000000     0.999620000000     0.006810000000     0.367286   
C26      C      0.508880000000     0.000090000000     0.081710000000     0.365785   
C27      C      0.491340000000     0.908660000000     0.997040000000     0.363551   
C28      C      0.584610000000     0.984780000000     0.985910000000     0.365794   
C29      C      0.507520000000     0.081520000000     0.991800000000     0.362605   
C30      C      0.487590000000     0.996300000000     0.908310000000     0.364321   
C31      C      0.405040000000     0.999950000000     0.490260000000     0.365319   
C32      C      0.489400000000     0.010700000000     0.408350000000     0.369233   
C33      C      0.489010000000     0.093690000000     0.502310000000     0.36477    
C34      C      0.577840000000     0.015600000000     0.497210000000     0.37148    
C35      C      0.504450000000     0.921030000000     0.492290000000     0.369471   
C36      C      0.482670000000     0.000090000000     0.581150000000     0.366969   
C37      C      0.511800000000     0.492000000000     0.910350000000     0.368493   
C38      C      0.509290000000     0.581510000000     0.999150000000     0.364517   
C39      C      0.416870000000     0.504280000000     0.987550000000     0.363107   
C40      C      0.493330000000     0.491820000000     0.084170000000     0.370164   
C41      C      0.589080000000     0.492200000000     0.006430000000     0.362949   
C42      C      0.495770000000     0.408400000000     0.997360000000     0.371472   
C43      C      0.402370000000     0.514060000000     0.495890000000     0.366892   
C44      C      0.476540000000     0.420480000000     0.496030000000     0.36956    
C45      C      0.495950000000     0.508550000000     0.410710000000     0.363874   
C46      C      0.575160000000     0.496520000000     0.500700000000     0.369528   
C47      C      0.491020000000     0.508160000000     0.584310000000     0.36452    
C48      C      0.492660000000     0.593890000000     0.498090000000     0.361302   
C49      C      0.530990000000     0.516250000000     0.829240000000    -0.0250066  
C50      C      0.479490000000     0.483910000000     0.667480000000    -0.0291614  
C51      C      0.512310000000     0.532490000000     0.632240000000    -0.00908455 
C52      C      0.467420000000     0.493090000000     0.634960000000    -0.00902709 
C53      C      0.485830000000     0.523890000000     0.737710000000    -0.0517081  
C54      C      0.528200000000     0.477640000000     0.756960000000    -0.0498463  
C55      C      0.501210000000     0.505620000000     0.715180000000     0.0639537  
C56      C      0.522240000000     0.521300000000     0.664800000000    -0.0290771  
C57      C      0.512650000000     0.495790000000     0.779510000000     0.0636198  
C58      C      0.489570000000     0.477140000000     0.827690000000    -0.0210545  
C59      C      0.491390000000     0.519070000000     0.769620000000    -0.0542442  
C60      C      0.497220000000     0.465610000000     0.860890000000    -0.0187877  
C61      C      0.540980000000     0.506410000000     0.862290000000    -0.0102121  
C62      C      0.522590000000     0.482430000000     0.725030000000    -0.0543043  
C63      C      0.475100000000     0.517310000000     0.165140000000    -0.0252505  
C64      C      0.513530000000     0.482340000000     0.329750000000    -0.0293029  
C65      C      0.485240000000     0.536200000000     0.360940000000    -0.00950591 
C66      C      0.523870000000     0.490920000000     0.363030000000    -0.00899955 
C67      C      0.517580000000     0.520650000000     0.258000000000    -0.051522   
C68      C      0.471120000000     0.479360000000     0.236940000000    -0.0495706  
C69      C      0.498720000000     0.504960000000     0.279840000000     0.064117   
C70      C      0.476500000000     0.525570000000     0.327840000000    -0.0288612  
C71      C      0.490030000000     0.495010000000     0.215090000000     0.0638323  
C72      C      0.512830000000     0.474700000000     0.167270000000    -0.0215231  
C73      C      0.513350000000     0.515800000000     0.225880000000    -0.0542549  
C74      C      0.505000000000     0.464150000000     0.133740000000    -0.0184132  
C75      C      0.464960000000     0.508610000000     0.131860000000    -0.00965521 
C76      C      0.475330000000     0.484240000000     0.269070000000    -0.0537729  
C77      C      0.486900000000     0.838030000000     0.475180000000    -0.0253482  
C78      C      0.520950000000     0.674770000000     0.515520000000    -0.0285264  
C79      C      0.468660000000     0.644470000000     0.483280000000    -0.0113581  
C80      C      0.511440000000     0.641520000000     0.524930000000    -0.0102606  
C81      C      0.482520000000     0.746600000000     0.518980000000    -0.0505118  
C82      C      0.527070000000     0.768690000000     0.476190000000    -0.051103   
C83      C      0.499470000000     0.725160000000     0.500750000000     0.0635535  
C84      C      0.480210000000     0.677700000000     0.476020000000    -0.0279262  
C85      C      0.509980000000     0.790140000000     0.494300000000     0.0641683  
C86      C      0.524960000000     0.840090000000     0.517490000000    -0.0214051  
C87      C      0.487590000000     0.778820000000     0.515810000000    -0.0541577  
C88      C      0.534220000000     0.874080000000     0.509470000000    -0.0184704  
C89      C      0.494950000000     0.871190000000     0.464450000000    -0.00920075 
C90      C      0.521920000000     0.736460000000     0.479290000000    -0.0539644  
C91      C      0.457070000000     0.340030000000     0.522790000000    -0.0256574  
C92      C      0.501510000000     0.177770000000     0.483440000000    -0.0285383  
C93      C      0.471430000000     0.140270000000     0.532040000000    -0.00954132 
C94      C      0.513720000000     0.144730000000     0.490300000000    -0.00979899 
C95      C      0.499090000000     0.246450000000     0.525540000000    -0.0504494  
C96      C      0.453330000000     0.267660000000     0.483590000000    -0.0492616  
C97      C      0.481540000000     0.224610000000     0.508370000000     0.0645433  
C98      C      0.461170000000     0.173570000000     0.523350000000    -0.0286058  
C99      C      0.471090000000     0.289510000000     0.500560000000     0.0640271  
C100     C      0.493950000000     0.336870000000     0.479540000000    -0.0218061  
C101     C      0.494050000000     0.278620000000     0.521700000000    -0.053501   
C102     C      0.486350000000     0.370330000000     0.468660000000    -0.0178201  
C103     C      0.447400000000     0.373510000000     0.513950000000    -0.00880313 
C104     C      0.458460000000     0.235480000000     0.487340000000    -0.0539649  
C105     C      0.490560000000     0.662740000000     0.022450000000    -0.0245823  
C106     C      0.486170000000     0.826630000000     0.969440000000    -0.0293375  
C107     C      0.495360000000     0.860260000000     0.028260000000    -0.00950087 
C108     C      0.471900000000     0.859390000000     0.973570000000    -0.00892787 
C109     C      0.469060000000     0.756600000000     0.996500000000    -0.0520719  
C110     C      0.530520000000     0.733670000000     0.996830000000    -0.0489162  
C111     C      0.494240000000     0.777730000000     0.997260000000     0.0637622  
C112     C      0.508270000000     0.827530000000     0.021940000000    -0.0281386  
C113     C      0.505340000000     0.712540000000     0.998080000000     0.0632255  
C114     C      0.515030000000     0.663440000000     0.971030000000    -0.0216986  
C115     C      0.474440000000     0.724290000000     0.996250000000    -0.0540604  
C116     C      0.529350000000     0.630650000000     0.975810000000    -0.0168407  
C117     C      0.503480000000     0.630210000000     0.029780000000    -0.00999447 
C118     C      0.525140000000     0.765950000000     0.995780000000    -0.054603   
C119     C      0.514390000000     0.326320000000     0.017580000000    -0.0235572  
C120     C      0.514060000000     0.162700000000     0.961920000000    -0.0295261  
C121     C      0.506850000000     0.130660000000     0.021890000000    -0.00949611 
C122     C      0.527310000000     0.129490000000     0.966040000000    -0.00895213 
C123     C      0.534290000000     0.232980000000     0.989010000000    -0.0507623  
C124     C      0.473200000000     0.256890000000     0.989620000000    -0.0482695  
C125     C      0.508750000000     0.212300000000     0.989230000000     0.0642284  
C126     C      0.494680000000     0.163600000000     0.015520000000    -0.0282814  
C127     C      0.498710000000     0.277540000000     0.991660000000     0.0655317  
C128     C      0.489360000000     0.327640000000     0.966430000000    -0.0214058  
C129     C      0.529440000000     0.265370000000     0.989550000000    -0.0534297  
C130     C      0.475210000000     0.360250000000     0.972580000000    -0.0155911  
C131     C      0.501830000000     0.358670000000     0.026210000000    -0.00984687 
C132     C      0.478060000000     0.224580000000     0.987780000000    -0.0535019  
C133     C      0.450510000000     0.012200000000     0.661270000000    -0.0251207  
C134     C      0.505430000000     0.002150000000     0.823130000000    -0.0291974  
C135     C      0.451240000000     0.991340000000     0.863580000000    -0.00925457 
C136     C      0.506080000000     0.014460000000     0.856760000000    -0.00977059 
C137     C      0.472420000000     0.025710000000     0.758870000000    -0.051788   
C138     C      0.470450000000     0.966660000000     0.730720000000    -0.0489349  
C139     C      0.471710000000     0.998870000000     0.777790000000     0.0647186  
C140     C      0.453000000000     0.981050000000     0.829250000000    -0.0287396  
C141     C      0.470470000000     0.993520000000     0.711790000000     0.0645132  
C142     C      0.502420000000     0.989150000000     0.665190000000    -0.0212725  
C143     C      0.472410000000     0.023180000000     0.726220000000    -0.0539888  
C144     C      0.501650000000     0.977700000000     0.631060000000    -0.0164974  
C145     C      0.447180000000     0.002560000000     0.626900000000    -0.010493   
C146     C      0.471630000000     0.969160000000     0.763360000000    -0.0539945  
C147     C      0.488540000000     0.982900000000     0.326250000000    -0.0253781  
C148     C      0.495390000000     0.030290000000     0.161500000000    -0.0298356  
C149     C      0.528790000000     0.978550000000     0.131740000000    -0.00749586 
C150     C      0.508280000000     0.034220000000     0.128370000000    -0.0082036  
C151     C      0.532920000000     0.008290000000     0.233740000000    -0.0512438  
C152     C      0.471170000000     0.008020000000     0.255920000000    -0.0508707  
C153     C      0.508010000000     0.007390000000     0.212300000000     0.0639299  
C154     C      0.514780000000     0.976780000000     0.164830000000    -0.0295758  
C155     C      0.496050000000     0.010420000000     0.277290000000     0.0640331  
C156     C      0.508370000000     0.036200000000     0.327160000000    -0.0214013  
C157     C      0.527140000000     0.009210000000     0.265980000000    -0.0539891  
C158     C      0.495020000000     0.042280000000     0.360050000000    -0.0193756  
C159     C      0.473110000000     0.986540000000     0.358420000000    -0.00883839 
C160     C      0.476990000000     0.005920000000     0.223760000000    -0.0533632  
C161     C      0.660130000000     0.514930000000     0.503170000000    -0.0256885  
C162     C      0.820980000000     0.453880000000     0.504250000000    -0.0283625  
C163     C      0.852840000000     0.502340000000     0.468040000000    -0.010578   
C164     C      0.854350000000     0.448140000000     0.492450000000    -0.0102448  
C165     C      0.750470000000     0.478260000000     0.463290000000    -0.0512173  
C166     C      0.726370000000     0.482190000000     0.524070000000    -0.0520473  
C167     C      0.771110000000     0.477780000000     0.488870000000     0.0640717  
C168     C      0.819720000000     0.506080000000     0.481440000000    -0.0279831  
C169     C      0.705690000000     0.481560000000     0.498540000000     0.0640779  
C170     C      0.653590000000     0.461400000000     0.485140000000    -0.0213213  
C171     C      0.718100000000     0.480720000000     0.467940000000    -0.0538988  
C172     C      0.619760000000     0.459690000000     0.497380000000    -0.0193163  
C173     C      0.627140000000     0.515740000000     0.517320000000    -0.00905118 
C174     C      0.758810000000     0.480940000000     0.519370000000    -0.0537999  
C175     C      0.320140000000     0.496850000000     0.517220000000    -0.0251141  
C176     C      0.157090000000     0.487230000000     0.460320000000    -0.0291248  
C177     C      0.124940000000     0.492010000000     0.520540000000    -0.0109057  
C178     C      0.124730000000     0.471920000000     0.464360000000    -0.00915671 
C179     C      0.228620000000     0.470310000000     0.487210000000    -0.0498531  
C180     C      0.249500000000     0.532410000000     0.487290000000    -0.0506985  
C181     C      0.206620000000     0.494730000000     0.487470000000     0.0633441  
C182     C      0.157180000000     0.506070000000     0.513960000000    -0.0279822  
C183     C      0.271440000000     0.508010000000     0.489170000000     0.0680871  
C184     C      0.321720000000     0.515940000000     0.463580000000    -0.0194908  
C185     C      0.260800000000     0.476780000000     0.487460000000    -0.0555135  
C186     C      0.354110000000     0.531210000000     0.468500000000    -0.0133686  
C187     C      0.352200000000     0.510960000000     0.524730000000    -0.00809534 
C188     C      0.217360000000     0.525930000000     0.485870000000    -0.052497   
C189     C      0.832000000000     0.505260000000     0.990280000000    -0.0265112  
C190     C      0.669140000000     0.464070000000     0.027500000000    -0.0286191  
C191     C      0.640120000000     0.517770000000     0.996620000000    -0.0125313  
C192     C      0.635300000000     0.473030000000     0.035720000000    -0.00980398 
C193     C      0.741040000000     0.502830000000     0.034760000000    -0.0514221  
C194     C      0.764610000000     0.461600000000     0.989560000000    -0.0509978  
C195     C      0.720140000000     0.486280000000     0.015530000000     0.0647685  
C196     C      0.673650000000     0.506690000000     0.990190000000    -0.0278806  
C197     C      0.785520000000     0.478580000000     0.008390000000     0.0644691  
C198     C      0.836710000000     0.464570000000     0.029570000000    -0.0217523  
C199     C      0.773480000000     0.499090000000     0.031300000000    -0.0542075  
C200     C      0.870620000000     0.456750000000     0.019760000000    -0.0174123  
C201     C      0.865180000000     0.499480000000     0.978030000000    -0.00989206 
C202     C      0.732190000000     0.465340000000     0.993020000000    -0.0548749  
C203     C      0.172250000000     0.515640000000     0.013180000000    -0.0238766  
C204     C      0.335390000000     0.483100000000     0.967540000000    -0.0291836  
C205     C      0.368230000000     0.533620000000     0.999840000000    -0.0104565  
C206     C      0.368680000000     0.492080000000     0.957480000000    -0.00927865 
C207     C      0.263960000000     0.522250000000     0.968570000000    -0.0517974  
C208     C      0.243530000000     0.477030000000     0.011430000000    -0.0487059  
C209     C      0.286120000000     0.504850000000     0.985470000000     0.0635272  
C210     C      0.334940000000     0.523000000000     0.008240000000    -0.027998   
C211     C      0.221380000000     0.494370000000     0.994460000000     0.0630695  
C212     C      0.172360000000     0.477220000000     0.971270000000    -0.0218418  
C213     C      0.231830000000     0.517160000000     0.972970000000    -0.0542542  
C214     C      0.138940000000     0.466160000000     0.979210000000    -0.0183627  
C215     C      0.139230000000     0.506280000000     0.023670000000    -0.00995539 
C216     C      0.275660000000     0.482170000000     0.007080000000    -0.0531394  
C217     C      0.958600000000     0.482670000000     0.664670000000    -0.0257914  
C218     C      0.020260000000     0.485370000000     0.825970000000    -0.0283724  
C219     C      0.971820000000     0.518110000000     0.861490000000    -0.00894985 
C220     C      0.027960000000     0.498210000000     0.858470000000    -0.00953532 
C221     C      0.989480000000     0.522970000000     0.757160000000    -0.0517077  
C222     C      0.987480000000     0.461480000000     0.734620000000    -0.0519953  
C223     C      0.991280000000     0.497920000000     0.778310000000     0.0632049  
C224     C      0.966370000000     0.503870000000     0.829000000000    -0.029208   
C225     C      0.987590000000     0.486520000000     0.713390000000     0.0637912  
C226     C      0.013540000000     0.497770000000     0.663860000000    -0.0206454  
C227     C      0.987100000000     0.517430000000     0.724980000000    -0.0548167  
C228     C      0.018340000000     0.484900000000     0.630720000000    -0.0188625  
C229     C      0.960610000000     0.468310000000     0.631800000000    -0.00898618 
C230     C      0.988720000000     0.467040000000     0.766870000000    -0.0537583  
C231     C      0.003530000000     0.466580000000     0.326500000000    -0.0234903  
C232     C      0.007040000000     0.526010000000     0.164230000000    -0.0281256  
C233     C      0.005260000000     0.466250000000     0.131050000000    -0.00969393 
C234     C      0.021410000000     0.523630000000     0.131340000000    -0.00937907 
C235     C      0.027570000000     0.498050000000     0.234720000000    -0.0519422  
C236     C      0.965770000000     0.495690000000     0.256670000000    -0.0480757  
C237     C      0.002700000000     0.497520000000     0.213220000000     0.0656251  
C238     C      0.991900000000     0.471160000000     0.163810000000    -0.0288939  
C239     C      0.990660000000     0.494250000000     0.278090000000     0.0629611  
C240     C      0.983080000000     0.519650000000     0.328310000000    -0.0220394  
C241     C      0.021700000000     0.497030000000     0.266920000000    -0.0525838  
C242     C      0.968450000000     0.514500000000     0.360870000000    -0.0163758  
C243     C      0.990320000000     0.458770000000     0.358840000000    -0.0114133  
C244     C      0.971610000000     0.497860000000     0.224520000000    -0.0557465  
C245     C      0.969260000000     0.814650000000     0.472060000000    -0.0254637  
C246     C      0.012560000000     0.653240000000     0.518460000000    -0.029014   
C247     C      0.958540000000     0.620370000000     0.492380000000    -0.0104358  
C248     C      0.004910000000     0.619950000000     0.529720000000    -0.00868835 
C249     C      0.971540000000     0.724340000000     0.519970000000    -0.0507833  
C250     C      0.011320000000     0.744620000000     0.471910000000    -0.0497876  
C251     C      0.988370000000     0.702230000000     0.502440000000     0.0627937  
C252     C      0.968430000000     0.653250000000     0.482390000000    -0.0285164  
C253     C      0.994410000000     0.766720000000     0.489370000000     0.0635621  
C254     C      0.012720000000     0.816670000000     0.508740000000    -0.0202253  
C255     C      0.974480000000     0.756330000000     0.513590000000    -0.0543317  
C256     C      0.021950000000     0.849860000000     0.498480000000    -0.0175869  
C257     C      0.976200000000     0.847650000000     0.459730000000    -0.00896036 
C258     C      0.008360000000     0.712620000000     0.478280000000    -0.0532426  
C259     C      0.005480000000     0.154750000000     0.477000000000    -0.0236286  
C260     C      0.972560000000     0.317170000000     0.521260000000    -0.0282498  
C261     C      0.021240000000     0.349320000000     0.485470000000    -0.00980614 
C262     C      0.982000000000     0.350570000000     0.530170000000    -0.0106614  
C263     C      0.011370000000     0.246010000000     0.520860000000    -0.0507923  
C264     C      0.965050000000     0.224330000000     0.479750000000    -0.0503834  
C265     C      0.993550000000     0.267610000000     0.503670000000     0.0632724  
C266     C      0.010300000000     0.315820000000     0.478600000000    -0.0274556  
C267     C      0.983020000000     0.202730000000     0.496760000000     0.0631727  
C268     C      0.968150000000     0.152760000000     0.519840000000    -0.0216412  
C269     C      0.006240000000     0.213810000000     0.517500000000    -0.0535619  
C270     C      0.957810000000     0.119210000000     0.511400000000    -0.0182545  
C271     C      0.996810000000     0.121870000000     0.465920000000    -0.0118022  
C272     C      0.970150000000     0.256520000000     0.483120000000    -0.0541752  
C273     C      0.659280000000     0.014730000000     0.468270000000    -0.0266604  
C274     C      0.823660000000     0.000850000000     0.520180000000    -0.0303281  
C275     C      0.852380000000     0.962770000000     0.471200000000    -0.0080346  
C276     C      0.855580000000     0.985590000000     0.525980000000    -0.00737554 
C277     C      0.749630000000     0.967560000000     0.495590000000    -0.0503494  
C278     C      0.731550000000     0.030520000000     0.494060000000    -0.0505256  
C279     C      0.772710000000     0.990960000000     0.495760000000     0.0651366  
C280     C      0.820710000000     0.979420000000     0.467450000000    -0.0290292  
C281     C      0.708500000000     0.007140000000     0.495650000000     0.0644299  
C282     C      0.658980000000     0.999580000000     0.523230000000    -0.0204826  
C283     C      0.717790000000     0.975450000000     0.494950000000    -0.0532934  
C284     C      0.626560000000     0.014240000000     0.528600000000    -0.0192164  
C285     C      0.627360000000     0.031070000000     0.471280000000    -0.00766368 
C286     C      0.763400000000     0.022600000000     0.493510000000    -0.0538299  
C287     C      0.159350000000     0.963010000000     0.493450000000    -0.023442   
C288     C      0.320310000000     0.022310000000     0.488900000000    -0.0295138  
C289     C      0.358990000000     0.966300000000     0.481250000000    -0.00941164 
C290     C      0.353220000000     0.021820000000     0.503190000000    -0.0085145  
C291     C      0.253840000000     0.992040000000     0.510300000000    -0.0500052  
C292     C      0.227980000000     0.987320000000     0.450320000000    -0.0499334  
C293     C      0.273810000000     0.990200000000     0.484260000000     0.0637632  
C294     C      0.325380000000     0.969460000000     0.469020000000    -0.028902   
C295     C      0.208090000000     0.987780000000     0.476470000000     0.068734   
C296     C      0.158580000000     0.015260000000     0.470900000000    -0.0198666  
C297     C      0.221270000000     0.991460000000     0.506520000000    -0.0557363  
C298     C      0.124900000000     0.011050000000     0.458550000000    -0.013307   
C299     C      0.125900000000     0.956240000000     0.482600000000    -0.0104085  
C300     C      0.260550000000     0.989090000000     0.454020000000    -0.0518307  
C301     C      0.033080000000     0.827490000000     0.973430000000    -0.0243252  
C302     C      0.977440000000     0.664240000000     0.984130000000    -0.0305193  
C303     C      0.035410000000     0.628380000000     0.990770000000    -0.0120792  
C304     C      0.978380000000     0.630140000000     0.972900000000    -0.00950883 
C305     C      0.008300000000     0.731010000000     0.957970000000    -0.0517578  
C306     C      0.008760000000     0.758570000000     0.017350000000    -0.048572   
C307     C      0.008150000000     0.711900000000     0.984670000000     0.0628229  
C308     C      0.031890000000     0.662520000000     0.000760000000    -0.0263882  
C309     C      0.010180000000     0.777680000000     0.990680000000     0.0640581  
C310     C      0.980400000000     0.825740000000     0.994810000000    -0.0231476  
C311     C      0.008730000000     0.763640000000     0.960820000000    -0.0547686  
C312     C      0.982760000000     0.859140000000     0.007900000000    -0.014637   
C313     C      0.038040000000     0.861330000000     0.984240000000    -0.0105227  
C314     C      0.007200000000     0.726020000000     0.014500000000    -0.053695   
C315     C      0.008750000000     0.327010000000     0.960100000000    -0.0250572  
C316     C      0.002970000000     0.163390000000     0.014820000000    -0.0271008  
C317     C      0.973040000000     0.130150000000     0.963120000000    -0.00925369 
C318     C      0.989730000000     0.130580000000     0.020190000000    -0.0112026  
C319     C      0.967300000000     0.233650000000     0.985220000000    -0.0496484  
C320     C      0.029030000000     0.255880000000     0.987160000000    -0.0521234  
C321     C      0.992200000000     0.212310000000     0.987350000000     0.0622826  
C322     C      0.987520000000     0.162850000000     0.959950000000    -0.0299349  
C323     C      0.004050000000     0.277230000000     0.986880000000     0.0661292  
C324     C      0.991950000000     0.325590000000     0.014380000000    -0.0233596  
C325     C      0.973080000000     0.265850000000     0.984440000000    -0.055824   
C326     C      0.004510000000     0.358540000000     0.020930000000    -0.0154702  
C327     C      0.022870000000     0.359830000000     0.963790000000    -0.00871629 
C328     C      0.023290000000     0.223640000000     0.986810000000    -0.0519431  
C329     C      0.667410000000     0.967110000000     0.006380000000    -0.0249111  
C330     C      0.829840000000     0.006170000000     0.959800000000    -0.0298256  
C331     C      0.864030000000     0.978380000000     0.012150000000    -0.0102849  
C332     C      0.863470000000     0.017060000000     0.966530000000    -0.0101539  
C333     C      0.760340000000     0.009930000000     0.002790000000    -0.0505456  
C334     C      0.736690000000     0.963410000000     0.963110000000    -0.0505599  
C335     C      0.781210000000     0.991380000000     0.985470000000     0.0626285  
C336     C      0.830570000000     0.969310000000     0.002900000000    -0.027168   
C337     C      0.715820000000     0.981950000000     0.980470000000     0.0667892  
C338     C      0.666490000000     0.004140000000     0.963220000000    -0.0195736  
C339     C      0.727920000000     0.005360000000     0.000370000000    -0.0558282  
C340     C      0.632400000000     0.995860000000     0.954870000000    -0.0140826  
C341     C      0.633510000000     0.956820000000     0.000130000000    -0.00726955 
C342     C      0.769130000000     0.967970000000     0.965550000000    -0.0532063  
C343     C      0.328570000000     0.986280000000     0.990380000000    -0.0243313  
C344     C      0.165160000000     0.032200000000     0.018750000000    -0.0293747  
C345     C      0.138560000000     0.996140000000     0.967100000000    -0.00797699 
C346     C      0.131940000000     0.039660000000     0.007090000000    -0.00732776 
C347     C      0.239330000000     0.033580000000     0.983090000000    -0.0524397  
C348     C      0.259670000000     0.993300000000     0.030640000000    -0.0494827  
C349     C      0.217120000000     0.017110000000     0.000860000000     0.0647855  
C350     C      0.171330000000     0.990450000000     0.980590000000    -0.0291344  
C351     C      0.281890000000     0.009320000000     0.012470000000     0.0639354  
C352     C      0.333250000000     0.030740000000     0.025550000000    -0.0215687  
C353     C      0.271460000000     0.029760000000     0.988730000000    -0.0548099  
C354     C      0.366860000000     0.021420000000     0.035170000000    -0.0187449  
C355     C      0.361270000000     0.974300000000     0.998820000000    -0.0114438  
C356     C      0.227540000000     0.997070000000     0.024950000000    -0.0536584  
C357     C      0.984910000000     0.000530000000     0.658540000000    -0.0269164  
C358     C      0.026710000000     0.964040000000     0.821230000000    -0.028851   
C359     C      0.991600000000     0.015020000000     0.850430000000    -0.0112872  
C360     C      0.034830000000     0.973890000000     0.854750000000    -0.00991215 
C361     C      0.029630000000     0.003010000000     0.749400000000    -0.0534124  
C362     C      0.987910000000     0.957840000000     0.726550000000    -0.0512519  
C363     C      0.012080000000     0.984950000000     0.770510000000     0.0647649  
C364     C      0.985590000000     0.003060000000     0.817220000000    -0.0297976  
C365     C      0.005080000000     0.976230000000     0.705440000000     0.0644495  
C366     C      0.027490000000     0.963120000000     0.654700000000    -0.0214036  
C367     C      0.026230000000     0.998760000000     0.717100000000    -0.0535019  
C368     C      0.018330000000     0.953640000000     0.621140000000    -0.0169352  
C369     C      0.973210000000     0.993120000000     0.625550000000    -0.0087219  
C370     C      0.991310000000     0.962070000000     0.758840000000    -0.0554586  
C371     C      0.975980000000     0.968550000000     0.155130000000    -0.0242597  
C372     C      0.008140000000     0.008730000000     0.319400000000    -0.0278785  
C373     C      0.958690000000     0.974320000000     0.351860000000    -0.00896588 
C374     C      0.998990000000     0.018290000000     0.352690000000    -0.0112169  
C375     C      0.968690000000     0.008580000000     0.248660000000    -0.0519122  
C376     C      0.014510000000     0.966990000000     0.226810000000    -0.0484834  
C377     C      0.986410000000     0.991180000000     0.270140000000     0.0644447  
C378     C      0.969670000000     0.966780000000     0.318580000000    -0.0288979  
C379     C      0.996870000000     0.984480000000     0.205320000000     0.0635936  
C380     C      0.014990000000     0.009950000000     0.158040000000    -0.020917   
C381     C      0.973800000000     0.005340000000     0.216490000000    -0.0542425  
C382     C      0.026390000000     0.003700000000     0.124490000000    -0.0188227  
C383     C      0.985650000000     0.959860000000     0.121750000000    -0.0124875  
C384     C      0.009410000000     0.970240000000     0.258980000000    -0.0532999  
H1       H      0.534760000000     0.467970000000     0.708090000000     0.0472942  
H2       H      0.551990000000     0.525460000000     0.816730000000     0.0410983  
H3       H      0.479320000000     0.457500000000     0.813850000000     0.0457616  
H4       H      0.499290000000     0.554950000000     0.634720000000     0.0440906  
H5       H      0.561920000000     0.490960000000     0.860500000000     0.0602359  
H6       H      0.459170000000     0.475750000000     0.681740000000     0.0398525  
H7       H      0.533990000000     0.541110000000     0.677090000000     0.0397108  
H8       H      0.458980000000     0.471560000000     0.622910000000     0.0489168  
H9       H      0.474360000000     0.460800000000     0.872570000000     0.0611025  
H10      H      0.544490000000     0.459550000000     0.764200000000     0.0509805  
H11      H      0.548210000000     0.527760000000     0.875380000000     0.050624   
H12      H      0.469300000000     0.541780000000     0.730470000000     0.0489011  
H13      H      0.513420000000     0.535510000000     0.831020000000     0.0401847  
H14      H      0.533880000000     0.537390000000     0.618380000000     0.0502333  
H15      H      0.496330000000     0.464060000000     0.665160000000     0.0438821  
H16      H      0.539560000000     0.501880000000     0.662360000000     0.0446193  
H17      H      0.478890000000     0.533270000000     0.786540000000     0.0443389  
H18      H      0.471310000000     0.495790000000     0.829320000000     0.0398626  
H19      H      0.446910000000     0.508990000000     0.637820000000     0.0443435  
H20      H      0.543410000000     0.425720000000     0.815960000000     0.154542   
H21      H      0.460380000000     0.471890000000     0.285450000000     0.048689   
H22      H      0.454750000000     0.528330000000     0.177270000000     0.040346   
H23      H      0.520970000000     0.454150000000     0.181170000000     0.0460386  
H24      H      0.502140000000     0.555990000000     0.359150000000     0.0436536  
H25      H      0.442680000000     0.495080000000     0.133110000000     0.0602326  
H26      H      0.533690000000     0.471040000000     0.317560000000     0.0418836  
H27      H      0.468970000000     0.546500000000     0.314190000000     0.04002    
H28      H      0.528680000000     0.468900000000     0.376110000000     0.0534386  
H29      H      0.527610000000     0.457600000000     0.122450000000     0.0594738  
H30      H      0.453090000000     0.463310000000     0.229000000000     0.0521661  
H31      H      0.459920000000     0.530610000000     0.118840000000     0.0485697  
H32      H      0.535610000000     0.536700000000     0.265940000000     0.0488747  
H33      H      0.494400000000     0.534900000000     0.163920000000     0.0402093  
H34      H      0.463700000000     0.545200000000     0.372600000000     0.0513523  
H35      H      0.493980000000     0.465020000000     0.331030000000     0.0479268  
H36      H      0.456290000000     0.509030000000     0.329150000000     0.0451053  
H37      H      0.528270000000     0.528200000000     0.209510000000     0.0446681  
H38      H      0.532680000000     0.491690000000     0.166250000000     0.040058   
H39      H      0.546250000000     0.504290000000     0.361620000000     0.0435783  
H40      H      0.454540000000     0.428290000000     0.177210000000     0.155672   
H41      H      0.535280000000     0.720410000000     0.464860000000     0.0447378  
H42      H      0.478920000000     0.824430000000     0.454380000000     0.0402142  
H43      H      0.545310000000     0.827870000000     0.528420000000     0.0475639  
H44      H      0.447190000000     0.646100000000     0.498040000000     0.0528048  
H45      H      0.511400000000     0.869720000000     0.444270000000     0.0582419  
H46      H      0.531280000000     0.686580000000     0.536390000000     0.0395792  
H47      H      0.459940000000     0.691700000000     0.467320000000     0.0411777  
H48      H      0.533140000000     0.628100000000     0.530440000000     0.0479223  
H49      H      0.537170000000     0.886790000000     0.532050000000     0.0684893  
H50      H      0.544160000000     0.777040000000     0.459350000000     0.0505527  
H51      H      0.473030000000     0.882400000000     0.455800000000     0.049852   
H52      H      0.465140000000     0.738260000000     0.535540000000     0.0505773  
H53      H      0.467150000000     0.839030000000     0.492290000000     0.0428182  
H54      H      0.461850000000     0.632990000000     0.460880000000     0.0538969  
H55      H      0.539350000000     0.673550000000     0.497000000000     0.0408152  
H56      H      0.498140000000     0.676670000000     0.457040000000     0.0410372  
H57      H      0.473810000000     0.794870000000     0.529840000000     0.0472558  
H58      H      0.505770000000     0.840670000000     0.535220000000     0.0459149  
H59      H      0.497210000000     0.642750000000     0.546760000000     0.0454696  
H60      H      0.578820000000     0.830620000000     0.467040000000     0.153874   
H61      H      0.444720000000     0.219150000000     0.473620000000     0.0479772  
H62      H      0.436700000000     0.328360000000     0.534250000000     0.0408095  
H63      H      0.501550000000     0.322620000000     0.459020000000     0.0476089  
H64      H      0.486240000000     0.141440000000     0.553470000000     0.0472737  
H65      H      0.424790000000     0.372560000000     0.500950000000     0.0587903  
H66      H      0.521490000000     0.192220000000     0.474770000000     0.043354   
H67      H      0.451000000000     0.184880000000     0.544550000000     0.0397564  
H68      H      0.521200000000     0.133880000000     0.467810000000     0.054562   
H69      H      0.508960000000     0.381120000000     0.461330000000     0.0629747  
H70      H      0.435760000000     0.275630000000     0.467070000000     0.0513341  
H71      H      0.443130000000     0.386910000000     0.535890000000     0.0492578  
H72      H      0.517030000000     0.238470000000     0.541670000000     0.0522514  
H73      H      0.476660000000     0.341110000000     0.540050000000     0.0429004  
H74      H      0.450120000000     0.126390000000     0.537920000000     0.0491709  
H75      H      0.483490000000     0.176570000000     0.464540000000     0.0467598  
H76      H      0.442490000000     0.172290000000     0.505110000000     0.0434255  
H77      H      0.508340000000     0.294950000000     0.534870000000     0.047968   
H78      H      0.514120000000     0.337820000000     0.496160000000     0.0452435  
H79      H      0.534870000000     0.146620000000     0.505490000000     0.0515361  
H80      H      0.434350000000     0.327070000000     0.433950000000     0.155342   
H81      H      0.545160000000     0.781510000000     0.994880000000     0.0457998  
H82      H      0.487860000000     0.675830000000     0.044850000000     0.0398532  
H83      H      0.530210000000     0.677150000000     0.954780000000     0.0453625  
H84      H      0.473330000000     0.857950000000     0.042080000000     0.0447395  
H85      H      0.524500000000     0.632780000000     0.044990000000     0.0587399  
H86      H      0.471060000000     0.813200000000     0.952910000000     0.0383285  
H87      H      0.509710000000     0.814640000000     0.044580000000     0.0393893  
H88      H      0.473220000000     0.872020000000     0.950800000000     0.0472376  
H89      H      0.527390000000     0.618000000000     0.953090000000     0.0568912  
H90      H      0.554440000000     0.725060000000     0.997110000000     0.0493451  
H91      H      0.485570000000     0.617210000000     0.043590000000     0.0484491  
H92      H      0.445140000000     0.765270000000     0.996620000000     0.0478995  
H93      H      0.466950000000     0.659910000000     0.011590000000     0.0392709  
H94      H      0.512510000000     0.873250000000     0.043010000000     0.0490843  
H95      H      0.510070000000     0.828550000000     0.958980000000     0.0439193  
H96      H      0.532410000000     0.829960000000     0.012220000000     0.042463   
H97      H      0.454390000000     0.708750000000     0.995680000000     0.0434798  
H98      H      0.491550000000     0.661160000000     0.959720000000     0.0399405  
H99      H      0.446690000000     0.856870000000     0.979890000000     0.0448209  
H100     H      0.584750000000     0.675900000000     0.008410000000     0.154611   
H101     H      0.457820000000     0.209310000000     0.986510000000     0.0463728  
H102     H      0.517210000000     0.312400000000     0.039470000000     0.0441334  
H103     H      0.473990000000     0.314600000000     0.949820000000     0.0491093  
H104     H      0.529700000000     0.132530000000     0.034380000000     0.042916   
H105     H      0.481040000000     0.355750000000     0.041700000000     0.069353   
H106     H      0.528810000000     0.175280000000     0.944430000000     0.039529   
H107     H      0.494860000000     0.176980000000     0.037930000000     0.0410154  
H108     H      0.524300000000     0.116390000000     0.943690000000     0.0462759  
H109     H      0.476930000000     0.373700000000     0.950300000000     0.0665332  
H110     H      0.449420000000     0.265880000000     0.990060000000     0.0512838  
H111     H      0.520050000000     0.371100000000     0.040150000000     0.0572921  
H112     H      0.558050000000     0.223910000000     0.989170000000     0.0491658  
H113     H      0.537890000000     0.329320000000     0.006550000000     0.0423452  
H114     H      0.490160000000     0.118610000000     0.037910000000     0.0495285  
H115     H      0.489620000000     0.161460000000     0.952680000000     0.0427628  
H116     H      0.469990000000     0.161800000000     0.007140000000     0.0429979  
H117     H      0.549730000000     0.280590000000     0.989550000000     0.0461293  
H118     H      0.512760000000     0.330250000000     0.955020000000     0.0470431  
H119     H      0.552910000000     0.131170000000     0.970970000000     0.0448977  
H120     H      0.419560000000     0.314480000000     0.004880000000     0.156527   
H121     H      0.472380000000     0.947880000000     0.777080000000     0.0461262  
H122     H      0.426690000000     0.013010000000     0.672020000000     0.0395712  
H123     H      0.517850000000     0.973400000000     0.679190000000     0.0484942  
H124     H      0.436530000000     0.012830000000     0.865050000000     0.0421328  
H125     H      0.431920000000     0.981470000000     0.625560000000     0.0588091  
H126     H      0.520790000000     0.017500000000     0.808610000000     0.0415961  
H127     H      0.428810000000     0.980840000000     0.819360000000     0.0383878  
H128     H      0.530270000000     0.011470000000     0.866160000000     0.0548616  
H129     H      0.525590000000     0.981360000000     0.621250000000     0.0627334  
H130     H      0.469990000000     0.943640000000     0.720060000000     0.0496335  
H131     H      0.434830000000     0.021670000000     0.614180000000     0.0486221  
H132     H      0.473470000000     0.048720000000     0.769550000000     0.0490105  
H133     H      0.460750000000     0.036190000000     0.662020000000     0.0402332  
H134     H      0.439060000000     0.972730000000     0.877200000000     0.0473276  
H135     H      0.515170000000     0.977920000000     0.822290000000     0.0470692  
H136     H      0.462470000000     0.956750000000     0.828450000000     0.0412875  
H137     H      0.473840000000     0.044420000000     0.712480000000     0.0453978  
H138     H      0.512980000000     0.013040000000     0.666110000000     0.0441191  
H139     H      0.500800000000     0.039990000000     0.856480000000     0.0458656  
H140     H      0.464120000000     0.919560000000     0.666800000000     0.154672   
H141     H      0.457220000000     0.003900000000     0.207980000000     0.0493063  
H142     H      0.474690000000     0.965500000000     0.312560000000     0.0400542  
H143     H      0.509640000000     0.058640000000     0.313890000000     0.0459206  
H144     H      0.554290000000     0.983860000000     0.133660000000     0.0431856  
H145     H      0.447660000000     0.991370000000     0.355140000000     0.0600015  
H146     H      0.495350000000     0.053610000000     0.173200000000     0.0421838  
H147     H      0.529240000000     0.960240000000     0.178950000000     0.0387586  
H148     H      0.491930000000     0.049370000000     0.114830000000     0.051906   
H149     H      0.513000000000     0.055830000000     0.373230000000     0.0607224  
H150     H      0.447150000000     0.007930000000     0.264300000000     0.0533055  
H151     H      0.475200000000     0.963840000000     0.371080000000     0.048835   
H152     H      0.556940000000     0.008530000000     0.225360000000     0.0484144  
H153     H      0.512870000000     0.973650000000     0.328970000000     0.0423921  
H154     H      0.526300000000     0.955230000000     0.120330000000     0.0471703  
H155     H      0.470710000000     0.021850000000     0.159780000000     0.0489233  
H156     H      0.490390000000     0.967390000000     0.163660000000     0.0465076  
H157     H      0.546950000000     0.009640000000     0.281820000000     0.0450611  
H158     H      0.532790000000     0.027290000000     0.329910000000     0.0400148  
H159     H      0.531150000000     0.046730000000     0.129820000000     0.0419965  
H160     H      0.439260000000     0.059110000000     0.312640000000     0.156346   
H161     H      0.774050000000     0.482050000000     0.539610000000     0.0446921  
H162     H      0.675320000000     0.531100000000     0.516950000000     0.0386615  
H163     H      0.664190000000     0.437540000000     0.485080000000     0.0459622  
H164     H      0.851010000000     0.495340000000     0.443000000000     0.0560749  
H165     H      0.628870000000     0.511700000000     0.543000000000     0.0588635  
H166     H      0.808490000000     0.430990000000     0.505540000000     0.0403655  
H167     H      0.806340000000     0.522190000000     0.465830000000     0.0398063  
H168     H      0.867220000000     0.434030000000     0.510200000000     0.0489621  
H169     H      0.605680000000     0.447110000000     0.479390000000     0.0606437  
H170     H      0.717220000000     0.483780000000     0.547700000000     0.0510703  
H171     H      0.617240000000     0.539610000000     0.513770000000     0.046504   
H172     H      0.759620000000     0.476850000000     0.439650000000     0.0506342  
H173     H      0.659430000000     0.523500000000     0.478500000000     0.0405871  
H174     H      0.864850000000     0.525480000000     0.469020000000     0.0522126  
H175     H      0.822470000000     0.463880000000     0.528290000000     0.0410609  
H176     H      0.820930000000     0.516890000000     0.505180000000     0.041852   
H177     H      0.702940000000     0.481530000000     0.447620000000     0.0451565  
H178     H      0.652730000000     0.469710000000     0.460430000000     0.0395985  
H179     H      0.853050000000     0.433920000000     0.470640000000     0.0467986  
H180     H      0.662850000000     0.439890000000     0.555650000000     0.155122   
H181     H      0.201020000000     0.545310000000     0.484720000000     0.0456254  
H182     H      0.305940000000     0.496300000000     0.539120000000     0.0412929  
H183     H      0.308600000000     0.529150000000     0.445270000000     0.0492341  
H184     H      0.128170000000     0.469620000000     0.533500000000     0.0497419  
H185     H      0.348620000000     0.533390000000     0.537500000000     0.0573407  
H186     H      0.170480000000     0.473610000000     0.442520000000     0.0390982  
H187     H      0.170720000000     0.506620000000     0.536270000000     0.041183   
H188     H      0.111230000000     0.474750000000     0.442210000000     0.0456181  
H189     H      0.367910000000     0.527330000000     0.446690000000     0.0590141  
H190     H      0.257370000000     0.556560000000     0.487570000000     0.0602531  
H191     H      0.364720000000     0.494850000000     0.540950000000     0.0489987  
H192     H      0.220740000000     0.446170000000     0.487540000000     0.0496059  
H193     H      0.323680000000     0.472340000000     0.509030000000     0.0415502  
H194     H      0.111900000000     0.508240000000     0.536250000000     0.0521125  
H195     H      0.154300000000     0.511650000000     0.451470000000     0.0420347  
H196     H      0.153940000000     0.530600000000     0.505670000000     0.0412728  
H197     H      0.277150000000     0.457380000000     0.487440000000     0.0465468  
H198     H      0.324880000000     0.491540000000     0.454820000000     0.0426807  
H199     H      0.128010000000     0.446380000000     0.468440000000     0.0463905  
H200     H      0.322720000000     0.604220000000     0.501950000000     0.158852   
H201     H      0.716570000000     0.452360000000     0.977780000000     0.0462467  
H202     H      0.817440000000     0.514260000000     0.970550000000     0.0398895  
H203     H      0.825360000000     0.443350000000     0.039690000000     0.0461671  
H204     H      0.641040000000     0.538100000000     0.012910000000     0.0544063  
H205     H      0.863720000000     0.485390000000     0.956170000000     0.0582437  
H206     H      0.680050000000     0.452900000000     0.048420000000     0.040154   
H207     H      0.687950000000     0.527380000000     0.983140000000     0.041761   
H208     H      0.621670000000     0.451140000000     0.039660000000     0.0497325  
H209     H      0.884340000000     0.452770000000     0.041590000000     0.0582844  
H210     H      0.773540000000     0.445910000000     0.971720000000     0.05067    
H211     H      0.875590000000     0.522530000000     0.971680000000     0.0478471  
H212     H      0.732110000000     0.519090000000     0.052090000000     0.0500951  
H213     H      0.832730000000     0.523620000000     0.008840000000     0.0403638  
H214     H      0.629780000000     0.526160000000     0.974210000000     0.0573165  
H215     H      0.668890000000     0.446550000000     0.008140000000     0.0429032  
H216     H      0.673430000000     0.489810000000     0.970270000000     0.0432275  
H217     H      0.789120000000     0.512650000000     0.045990000000     0.0446907  
H218     H      0.837380000000     0.482680000000     0.048370000000     0.0392866  
H219     H      0.635420000000     0.486360000000     0.058120000000     0.0460208  
H220     H      0.827680000000     0.414850000000     0.973390000000     0.154047   
H221     H      0.292290000000     0.468470000000     0.020500000000     0.0494345  
H222     H      0.185330000000     0.524410000000     0.034000000000     0.0398567  
H223     H      0.185740000000     0.457590000000     0.960440000000     0.0467457  
H224     H      0.366600000000     0.554590000000     0.984440000000     0.0421893  
H225     H      0.141150000000     0.490660000000     0.044430000000     0.061169   
H226     H      0.322640000000     0.473940000000     0.946680000000     0.0428106  
H227     H      0.321850000000     0.543530000000     0.017670000000     0.0388689  
H228     H      0.381170000000     0.470460000000     0.949970000000     0.0566996  
H229     H      0.126590000000     0.462300000000     0.956560000000     0.0590932  
H230     H      0.235830000000     0.459500000000     0.028100000000     0.052387   
H231     H      0.126700000000     0.527820000000     0.031330000000     0.0486309  
H232     H      0.271660000000     0.539800000000     0.951920000000     0.0481828  
H233     H      0.170560000000     0.535100000000     0.995860000000     0.0384877  
H234     H      0.380420000000     0.540800000000     0.021730000000     0.0495361  
H235     H      0.336720000000     0.464030000000     0.985310000000     0.0494292  
H236     H      0.336230000000     0.504850000000     0.026950000000     0.0453315  
H237     H      0.215200000000     0.530960000000     0.959650000000     0.0437956  
H238     H      0.170800000000     0.496270000000     0.953480000000     0.0392812  
H239     H      0.367110000000     0.507870000000     0.936810000000     0.0435484  
H240     H      0.183050000000     0.425650000000     0.025290000000     0.156193   
H241     H      0.988670000000     0.447190000000     0.782640000000     0.0453213  
H242     H      0.940220000000     0.469850000000     0.678090000000     0.0391613  
H243     H      0.036130000000     0.496800000000     0.676980000000     0.0450584  
H244     H      0.976330000000     0.543650000000     0.858820000000     0.0432483  
H245     H      0.962780000000     0.442430000000     0.634000000000     0.0589447  
H246     H      0.042070000000     0.485660000000     0.811570000000     0.0399332  
H247     H      0.947930000000     0.517870000000     0.816890000000     0.0382361  
H248     H      0.044480000000     0.481790000000     0.870220000000     0.0492483  
H249     H      0.033510000000     0.501940000000     0.618070000000     0.0593283  
H250     H      0.987010000000     0.437590000000     0.726070000000     0.0509902  
H251     H      0.938280000000     0.473260000000     0.619200000000     0.0457531  
H252     H      0.990460000000     0.546860000000     0.765670000000     0.0476799  
H253     H      0.951410000000     0.507720000000     0.662980000000     0.0397716  
H254     H      0.949980000000     0.515270000000     0.875530000000     0.0476768  
H255     H      0.012380000000     0.460620000000     0.828540000000     0.0425783  
H256     H      0.957680000000     0.479340000000     0.831380000000     0.0434761  
H257     H      0.985970000000     0.537270000000     0.709240000000     0.0438948  
H258     H      0.006690000000     0.522890000000     0.661870000000     0.0389246  
H259     H      0.040370000000     0.520970000000     0.855650000000     0.0423641  
H260     H      0.029830000000     0.425940000000     0.676080000000     0.154706   
H261     H      0.951870000000     0.498720000000     0.208600000000     0.0459711  
H262     H      0.004410000000     0.444640000000     0.312390000000     0.0410951  
H263     H      0.969240000000     0.537660000000     0.315410000000     0.0457561  
H264     H      0.028750000000     0.455050000000     0.133220000000     0.0524165  
H265     H      0.968380000000     0.444980000000     0.355840000000     0.0593905  
H266     H      0.019970000000     0.544420000000     0.177480000000     0.0386841  
H267     H      0.993440000000     0.448590000000     0.176830000000     0.0426685  
H268     H      0.016710000000     0.545840000000     0.118500000000     0.0459571  
H269     H      0.972190000000     0.536420000000     0.374500000000     0.0570246  
H270     H      0.941740000000     0.494620000000     0.264900000000     0.0496642  
H271     H      0.007430000000     0.443400000000     0.371140000000     0.0496114  
H272     H      0.051600000000     0.498670000000     0.226400000000     0.0502556  
H273     H      0.027940000000     0.475440000000     0.329480000000     0.0393771  
H274     H      0.989820000000     0.449530000000     0.118310000000     0.0545914  
H275     H      0.981960000000     0.533280000000     0.162480000000     0.0411713  
H276     H      0.966690000000     0.477710000000     0.161610000000     0.0421481  
H277     H      0.041430000000     0.497420000000     0.282870000000     0.0445239  
H278     H      0.007390000000     0.528960000000     0.331030000000     0.0407259  
H279     H      0.047310000000     0.521050000000     0.133610000000     0.0472012  
H280     H      0.910930000000     0.487780000000     0.314580000000     0.154489   
H281     H      0.021440000000     0.696020000000     0.464220000000     0.0454458  
H282     H      0.958340000000     0.800810000000     0.452810000000     0.0403145  
H283     H      0.033920000000     0.804100000000     0.517460000000     0.048126   
H284     H      0.939260000000     0.622410000000     0.509850000000     0.0434891  
H285     H      0.988840000000     0.845660000000     0.437030000000     0.0591902  
H286     H      0.023930000000     0.666190000000     0.538060000000     0.0398959  
H287     H      0.947060000000     0.666280000000     0.474870000000     0.0394622  
H288     H      0.027330000000     0.607320000000     0.534160000000     0.0471463  
H289     H      0.028520000000     0.862840000000     0.520120000000     0.0676674  
H290     H      0.026790000000     0.752260000000     0.453280000000     0.0504082  
H291     H      0.953480000000     0.859600000000     0.454990000000     0.0488484  
H292     H      0.955920000000     0.716670000000     0.538480000000     0.0492698  
H293     H      0.952020000000     0.816250000000     0.491630000000     0.0419121  
H294     H      0.948900000000     0.608070000000     0.471530000000     0.0506107  
H295     H      0.029590000000     0.651870000000     0.498700000000     0.0416908  
H296     H      0.984630000000     0.651560000000     0.461950000000     0.0422637  
H297     H      0.961240000000     0.772920000000     0.527510000000     0.0467467  
H298     H      0.995930000000     0.818420000000     0.528700000000     0.0453767  
H299     H      0.992070000000     0.621550000000     0.552350000000     0.0426473  
H300     H      0.058000000000     0.805110000000     0.448870000000     0.154658   
H301     H      0.955990000000     0.272690000000     0.469630000000     0.0457318  
H302     H      0.013420000000     0.168530000000     0.456300000000     0.0407891  
H303     H      0.948410000000     0.165290000000     0.531500000000     0.0456836  
H304     H      0.043330000000     0.348220000000     0.499330000000     0.047001   
H305     H      0.980660000000     0.123840000000     0.445540000000     0.059753   
H306     H      0.964400000000     0.304920000000     0.542810000000     0.0406034  
H307     H      0.030370000000     0.302560000000     0.468400000000     0.0396106  
H308     H      0.960670000000     0.363160000000     0.538370000000     0.0512469  
H309     H      0.955050000000     0.106090000000     0.533760000000     0.0579278  
H310     H      0.947230000000     0.216140000000     0.463600000000     0.0507988  
H311     H      0.018600000000     0.110250000000     0.457480000000     0.0515649  
H312     H      0.029390000000     0.254200000000     0.536790000000     0.05014    
H313     H      0.025410000000     0.153240000000     0.493860000000     0.0402192  
H314     H      0.026720000000     0.361060000000     0.462860000000     0.048708   
H315     H      0.952620000000     0.318080000000     0.504380000000     0.0422271  
H316     H      0.991110000000     0.316550000000     0.460870000000     0.0413537  
H317     H      0.020570000000     0.197610000000     0.530780000000     0.04467    
H318     H      0.987790000000     0.151440000000     0.537040000000     0.0389564  
H319     H      0.998730000000     0.349460000000     0.550160000000     0.0506229  
H320     H      0.913780000000     0.163780000000     0.468780000000     0.15432    
H321     H      0.780560000000     0.041230000000     0.492200000000     0.0494785  
H322     H      0.672990000000     0.026860000000     0.449660000000     0.0411696  
H323     H      0.672650000000     0.000090000000     0.545470000000     0.0469208  
H324     H      0.848030000000     0.937890000000     0.477640000000     0.0449284  
H325     H      0.631240000000     0.056650000000     0.474300000000     0.0604206  
H326     H      0.811120000000     0.002880000000     0.542980000000     0.042817   
H327     H      0.806020000000     0.965520000000     0.450940000000     0.0393028  
H328     H      0.869950000000     0.001510000000     0.540810000000     0.053031   
H329     H      0.613410000000     0.998180000000     0.544380000000     0.0662484  
H330     H      0.724750000000     0.054980000000     0.493680000000     0.053534   
H331     H      0.614140000000     0.027630000000     0.449060000000     0.0496154  
H332     H      0.756400000000     0.943100000000     0.496320000000     0.0507996  
H333     H      0.655820000000     0.989890000000     0.460980000000     0.0469061  
H334     H      0.864740000000     0.963080000000     0.448230000000     0.0483734  
H335     H      0.827680000000     0.024850000000     0.510760000000     0.0490412  
H336     H      0.824330000000     0.003150000000     0.457160000000     0.0463567  
H337     H      0.700590000000     0.956800000000     0.494810000000     0.0497013  
H338     H      0.655410000000     0.974560000000     0.516730000000     0.047422   
H339     H      0.851850000000     0.963620000000     0.539480000000     0.0452839  
H340     H      0.676440000000     0.069270000000     0.540500000000     0.155881   
H341     H      0.275160000000     0.988970000000     0.433290000000     0.0477363  
H342     H      0.172520000000     0.940480000000     0.494400000000     0.0450128  
H343     H      0.171410000000     0.032050000000     0.455540000000     0.0489192  
H344     H      0.358660000000     0.951500000000     0.502700000000     0.0454207  
H345     H      0.126920000000     0.941620000000     0.461060000000     0.0684664  
H346     H      0.305520000000     0.038540000000     0.503050000000     0.0389499  
H347     H      0.314420000000     0.945780000000     0.468520000000     0.0407276  
H348     H      0.364000000000     0.045370000000     0.500000000000     0.0489839  
H349     H      0.112410000000     0.033700000000     0.461990000000     0.0562736  
H350     H      0.218150000000     0.985440000000     0.426980000000     0.0619679  
H351     H      0.114040000000     0.941990000000     0.500920000000     0.0588495  
H352     H      0.263650000000     0.993920000000     0.533650000000     0.0483732  
H353     H      0.158290000000     0.972980000000     0.517530000000     0.0403662  
H354     H      0.373180000000     0.953660000000     0.463380000000     0.0498312  
H355     H      0.321290000000     0.031500000000     0.464470000000     0.0456856  
H356     H      0.326320000000     0.978620000000     0.444610000000     0.0433679  
H357     H      0.206590000000     0.993260000000     0.527110000000     0.0452268  
H358     H      0.157810000000     0.025670000000     0.494830000000     0.0395341  
H359     H      0.351180000000     0.017520000000     0.528820000000     0.0454643  
H360     H      0.148580000000     0.971050000000     0.385940000000     0.161639   
H361     H      0.005800000000     0.712010000000     0.035570000000     0.0454287  
H362     H      0.056270000000     0.815450000000     0.972910000000     0.0398944  
H363     H      0.963610000000     0.811940000000     0.009320000000     0.0469482  
H364     H      0.047590000000     0.627690000000     0.967720000000     0.0426226  
H365     H      0.053310000000     0.861230000000     0.005370000000     0.0622305  
H366     H      0.959960000000     0.677140000000     0.969630000000     0.0380581  
H367     H      0.055180000000     0.674200000000     0.998690000000     0.0376357  
H368     H      0.955370000000     0.618970000000     0.978190000000     0.0454278  
H369     H      0.959560000000     0.870510000000     0.004080000000     0.0568368  
H370     H      0.008760000000     0.769030000000     0.040470000000     0.0512937  
H371     H      0.051030000000     0.874090000000     0.965570000000     0.0483615  
H372     H      0.008150000000     0.720500000000     0.934860000000     0.047668   
H373     H      0.023470000000     0.827920000000     0.949170000000     0.0379974  
H374     H      0.050810000000     0.616300000000     0.008000000000     0.0484515  
H375     H      0.969560000000     0.665140000000     0.009020000000     0.0422658  
H376     H      0.024590000000     0.663050000000     0.025810000000     0.0405226  
H377     H      0.008400000000     0.777670000000     0.939730000000     0.0437957  
H378     H      0.970760000000     0.826490000000     0.970540000000     0.0398199  
H379     H      0.981550000000     0.629910000000     0.947030000000     0.0437642  
H380     H      0.017270000000     0.820650000000     0.069040000000     0.155877   
H381     H      0.043080000000     0.207760000000     0.987070000000     0.0453675  
H382     H      0.022200000000     0.314370000000     0.941640000000     0.0408899  
H383     H      0.992180000000     0.311530000000     0.036370000000     0.0489011  
H384     H      0.947260000000     0.132640000000     0.966560000000     0.0436362  
H385     H      0.048760000000     0.357720000000     0.966410000000     0.0657768  
H386     H      0.001340000000     0.176770000000     0.037160000000     0.0409602  
H387     H      0.974470000000     0.175780000000     0.941400000000     0.0383081  
H388     H      0.005050000000     0.118090000000     0.037200000000     0.0498626  
H389     H      0.986790000000     0.370500000000     0.035900000000     0.0638761  
H390     H      0.053010000000     0.264310000000     0.988210000000     0.052032   
H391     H      0.018340000000     0.373270000000     0.941900000000     0.0508438  
H392     H      0.943300000000     0.225240000000     0.984640000000     0.0492798  
H393     H      0.983860000000     0.328870000000     0.952250000000     0.0439498  
H394     H      0.976940000000     0.117180000000     0.940850000000     0.0460735  
H395     H      0.028200000000     0.161150000000     0.008340000000     0.0423218  
H396     H      0.012530000000     0.160840000000     0.952530000000     0.0426508  
H397     H      0.953350000000     0.281750000000     0.982960000000     0.0483334  
H398     H      0.967010000000     0.327790000000     0.006820000000     0.0465506  
H399     H      0.966110000000     0.132860000000     0.031100000000     0.0432613  
H400     H      0.065800000000     0.315870000000     0.028320000000     0.155314   
H401     H      0.784750000000     0.953250000000     0.951990000000     0.0452533  
H402     H      0.680350000000     0.946980000000     0.016810000000     0.0403353  
H403     H      0.679020000000     0.012120000000     0.941740000000     0.0494565  
H404     H      0.862960000000     0.994370000000     0.032700000000     0.0447463  
H405     H      0.633870000000     0.934300000000     0.987030000000     0.0573835  
H406     H      0.816750000000     0.026000000000     0.948980000000     0.0393713  
H407     H      0.817970000000     0.961350000000     0.024340000000     0.0389932  
H408     H      0.875650000000     0.020960000000     0.943800000000     0.046754   
H409     H      0.620540000000     0.018170000000     0.948420000000     0.0583346  
H410     H      0.727720000000     0.945390000000     0.947640000000     0.0586884  
H411     H      0.621940000000     0.952260000000     0.023040000000     0.0471449  
H412     H      0.769290000000     0.027960000000     0.018270000000     0.0483508  
H413     H      0.667330000000     0.986590000000     0.023760000000     0.0393826  
H414     H      0.876580000000     0.956790000000     0.019700000000     0.0498     
H415     H      0.830450000000     0.986530000000     0.942610000000     0.0414204  
H416     H      0.831370000000     0.949340000000     0.986090000000     0.0406185  
H417     H      0.712330000000     0.020090000000     0.013950000000     0.0444803  
H418     H      0.666360000000     0.024140000000     0.980000000000     0.0386182  
H419     H      0.862480000000     0.040000000000     0.978880000000     0.0436975  
H420     H      0.652380000000     0.927760000000     0.906010000000     0.159754   
H421     H      0.210900000000     0.983880000000     0.038880000000     0.0490673  
H422     H      0.313760000000     0.965780000000     0.983840000000     0.0389898  
H423     H      0.321770000000     0.043620000000     0.045140000000     0.0462245  
H424     H      0.140860000000     0.010610000000     0.945550000000     0.0416714  
H425     H      0.358900000000     0.955170000000     0.016350000000     0.0595098  
H426     H      0.175760000000     0.054140000000     0.028110000000     0.0424803  
H427     H      0.186580000000     0.981140000000     0.961550000000     0.0384844  
H428     H      0.117270000000     0.046380000000     0.027570000000     0.0535454  
H429     H      0.380840000000     0.043400000000     0.036670000000     0.059087   
H430     H      0.267330000000     0.977310000000     0.048800000000     0.0522693  
H431     H      0.371860000000     0.963880000000     0.977400000000     0.0486299  
H432     H      0.231680000000     0.048920000000     0.964360000000     0.0487333  
H433     H      0.330270000000     0.002040000000     0.969620000000     0.0389862  
H434     H      0.128430000000     0.973150000000     0.960110000000     0.0486566  
H435     H      0.163650000000     0.014910000000     0.038250000000     0.048759   
H436     H      0.169860000000     0.972380000000     0.999390000000     0.0449988  
H437     H      0.288110000000     0.042180000000     0.974140000000     0.0442712  
H438     H      0.334660000000     0.047120000000     0.005270000000     0.0398286  
H439     H      0.133170000000     0.060260000000     0.991170000000     0.0428844  
H440     H      0.321440000000     0.983930000000     0.082340000000     0.155545   
H441     H      0.977400000000     0.947890000000     0.774640000000     0.0447321  
H442     H      0.964450000000     0.008200000000     0.672880000000     0.0400315  
H443     H      0.039420000000     0.943140000000     0.666530000000     0.0460673  
H444     H      0.005610000000     0.036970000000     0.849020000000     0.0439958  
H445     H      0.952320000000     0.977580000000     0.627290000000     0.0588409  
H446     H      0.048340000000     0.954630000000     0.809980000000     0.0384315  
H447     H      0.976330000000     0.022850000000     0.802930000000     0.0382892  
H448     H      0.040590000000     0.952480000000     0.868460000000     0.0465246  
H449     H      0.040470000000     0.951160000000     0.607510000000     0.0584898  
H450     H      0.971430000000     0.940540000000     0.717900000000     0.0499153  
H451     H      0.965310000000     0.015410000000     0.614570000000     0.0484262  
H452     H      0.045620000000     0.020750000000     0.758050000000     0.0484318  
H453     H      0.001980000000     0.020300000000     0.657460000000     0.0400785  
H454     H      0.968590000000     0.021040000000     0.861230000000     0.0471795  
H455     H      0.008890000000     0.944940000000     0.821940000000     0.0405575  
H456     H      0.967320000000     0.984380000000     0.817950000000     0.04105    
H457     H      0.039630000000     0.013390000000     0.701270000000     0.0434308  
H458     H      0.044700000000     0.982750000000     0.653540000000     0.0390388  
H459     H      0.056260000000     0.988780000000     0.854150000000     0.0434888  
H460     H      0.974470000000     0.909410000000     0.664630000000     0.153822   
H461     H      0.023450000000     0.956560000000     0.275110000000     0.0484277  
H462     H      0.966840000000     0.947110000000     0.166870000000     0.0428054  
H463     H      0.034670000000     0.019730000000     0.172190000000     0.0461825  
H464     H      0.936700000000     0.988330000000     0.350450000000     0.0450994  
H465     H      0.001130000000     0.938900000000     0.122640000000     0.0715701  
H466     H      0.016760000000     0.029930000000     0.306840000000     0.042837   
H467     H      0.949510000000     0.956640000000     0.305390000000     0.0397542  
H468     H      0.020610000000     0.025740000000     0.365290000000     0.0587793  
H469     H      0.030860000000     0.026940000000     0.113540000000     0.0592941  
H470     H      0.032350000000     0.950880000000     0.218540000000     0.0524186  
H471     H      0.964160000000     0.953130000000     0.108550000000     0.0572595  
H472     H      0.950950000000     0.024790000000     0.256930000000     0.0496599  
H473     H      0.956660000000     0.986140000000     0.154170000000     0.0400687  
H474     H      0.952960000000     0.951920000000     0.363900000000     0.0497765  
H475     H      0.027710000000     0.991430000000     0.320470000000     0.0483533  
H476     H      0.988640000000     0.948840000000     0.319630000000     0.0445087  
H477     H      0.959880000000     0.019160000000     0.200380000000     0.0445167  
H478     H      0.996170000000     0.028070000000     0.157270000000     0.0392071  
H479     H      0.983080000000     0.038930000000     0.351390000000     0.0471135  
H480     H      0.066890000000     0.956040000000     0.167320000000     0.155323   
N1       N      0.515660000000     0.489170000000     0.878570000000    -0.151072   
N2       N      0.518010000000     0.489170000000     0.812280000000    -0.110161   
N3       N      0.494440000000     0.511100000000     0.682480000000    -0.112473   
N4       N      0.491680000000     0.509520000000     0.616400000000    -0.15635    
N5       N      0.488960000000     0.489290000000     0.115910000000    -0.151228   
N6       N      0.485170000000     0.489060000000     0.182120000000    -0.110123   
N7       N      0.503790000000     0.510750000000     0.312810000000    -0.112582   
N8       N      0.500150000000     0.510600000000     0.378930000000    -0.156036   
N9       N      0.510060000000     0.889450000000     0.489780000000    -0.149475   
N10      N      0.514770000000     0.823270000000     0.489130000000    -0.110347   
N11      N      0.493230000000     0.692080000000     0.504510000000    -0.112269   
N12      N      0.492500000000     0.625960000000     0.500370000000    -0.155868   
N13      N      0.471230000000     0.388810000000     0.493910000000    -0.149942   
N14      N      0.466390000000     0.322540000000     0.494570000000    -0.109616   
N15      N      0.488360000000     0.191630000000     0.512140000000    -0.111708   
N16      N      0.489940000000     0.125530000000     0.506690000000    -0.154676   
N17      N      0.512700000000     0.613370000000     0.000910000000    -0.150759   
N18      N      0.512170000000     0.679480000000     0.001340000000    -0.10813    
N19      N      0.487480000000     0.810830000000     0.999990000000    -0.112794   
N20      N      0.488060000000     0.876820000000     0.998740000000    -0.157281   
N21      N      0.492250000000     0.376530000000     0.998090000000    -0.149437   
N22      N      0.492390000000     0.310540000000     0.996120000000    -0.108434   
N23      N      0.514840000000     0.179120000000     0.992170000000    -0.112744   
N24      N      0.511880000000     0.113250000000     0.992400000000    -0.158291   
N25      N      0.477920000000     0.995060000000     0.612520000000    -0.150156   
N26      N      0.470450000000     0.989580000000     0.678110000000    -0.109134   
N27      N      0.473020000000     0.002840000000     0.811440000000    -0.112728   
N28      N      0.482590000000     0.998510000000     0.876680000000    -0.156479   
N29      N      0.487290000000     0.012600000000     0.376370000000    -0.151076   
N30      N      0.488740000000     0.013330000000     0.310260000000    -0.110641   
N31      N      0.515110000000     0.008100000000     0.179170000000    -0.112372   
N32      N      0.513530000000     0.003500000000     0.113260000000    -0.156971   
N33      N      0.606770000000     0.491340000000     0.503480000000    -0.151712   
N34      N      0.672350000000     0.482820000000     0.504660000000    -0.110753   
N35      N      0.804400000000     0.475270000000     0.482780000000    -0.112021   
N36      N      0.870440000000     0.477960000000     0.485190000000    -0.155959   
N37      N      0.370370000000     0.517390000000     0.495900000000    -0.151195   
N38      N      0.304210000000     0.515880000000     0.493210000000    -0.105241   
N39      N      0.173710000000     0.486960000000     0.490460000000    -0.112033   
N40      N      0.107570000000     0.485360000000     0.491280000000    -0.156791   
N41      N      0.884790000000     0.482350000000     0.001000000000    -0.151168   
N42      N      0.818780000000     0.475870000000     0.002380000000    -0.109976   
N43      N      0.686880000000     0.492250000000     0.018550000000    -0.112136   
N44      N      0.620920000000     0.492830000000     0.011170000000    -0.154806   
N45      N      0.122050000000     0.489510000000     0.998640000000    -0.151306   
N46      N      0.188410000000     0.488370000000     0.999680000000    -0.110844   
N47      N      0.319080000000     0.510760000000     0.980160000000    -0.113051   
N48      N      0.385340000000     0.508720000000     0.982900000000    -0.155865   
N49      N      0.988010000000     0.480380000000     0.614290000000    -0.152154   
N50      N      0.989150000000     0.479680000000     0.680290000000    -0.111021   
N51      N      0.995820000000     0.504790000000     0.811150000000    -0.113027   
N52      N      0.999160000000     0.503560000000     0.877040000000    -0.15786    
N53      N      0.983020000000     0.487390000000     0.376990000000    -0.151123   
N54      N      0.983470000000     0.489980000000     0.310930000000    -0.108874   
N55      N      0.009900000000     0.495640000000     0.180180000000    -0.111934   
N56      N      0.008950000000     0.496270000000     0.114160000000    -0.156504   
N57      N      0.995870000000     0.865770000000     0.481810000000    -0.150043   
N58      N      0.998540000000     0.799580000000     0.482410000000    -0.110526   
N59      N      0.983540000000     0.669350000000     0.508830000000    -0.112951   
N60      N      0.984950000000     0.603180000000     0.506900000000    -0.157773   
N61      N      0.981030000000     0.103530000000     0.490820000000    -0.150895   
N62      N      0.977990000000     0.169690000000     0.491460000000    -0.110607   
N63      N      0.999660000000     0.300660000000     0.507710000000    -0.112627   
N64      N      0.997510000000     0.366770000000     0.503740000000    -0.156096   
N65      N      0.609770000000     0.019030000000     0.498590000000    -0.149594   
N66      N      0.675980000000     0.016440000000     0.498330000000    -0.109978   
N67      N      0.805260000000     0.981640000000     0.498140000000    -0.111714   
N68      N      0.871260000000     0.977620000000     0.496140000000    -0.15604    
N69      N      0.108590000000     0.985450000000     0.475390000000    -0.150731   
N70      N      0.174660000000     0.984820000000     0.471530000000    -0.10491    
N71      N      0.307340000000     0.990490000000     0.489580000000    -0.111628   
N72      N      0.373050000000     0.996980000000     0.489310000000    -0.156204   
N73      N      0.008090000000     0.877080000000     0.992190000000    -0.151256   
N74      N      0.011620000000     0.811230000000     0.995020000000    -0.10787    
N75      N      0.008730000000     0.678300000000     0.980610000000    -0.112828   
N76      N      0.004590000000     0.612740000000     0.987450000000    -0.157493   
N77      N      0.010050000000     0.376190000000     0.991530000000    -0.149324   
N78      N      0.010930000000     0.310210000000     0.990020000000    -0.111156   
N79      N      0.984970000000     0.179350000000     0.990020000000    -0.112937   
N80      N      0.986390000000     0.113410000000     0.990320000000    -0.157938   
N81      N      0.616210000000     0.980340000000     0.981420000000    -0.151911   
N82      N      0.682470000000     0.976830000000     0.976920000000    -0.105473   
N83      N      0.814550000000     0.996510000000     0.989140000000    -0.112721   
N84      N      0.880800000000     0.994570000000     0.986450000000    -0.157048   
N85      N      0.381020000000     0.999430000000     0.012310000000    -0.15046    
N86      N      0.314820000000     0.002730000000     0.017340000000    -0.110377   
N87      N      0.184290000000     0.019990000000     0.992770000000    -0.113246   
N88      N      0.118320000000     0.012990000000     0.989630000000    -0.156486   
N89      N      0.997420000000     0.977200000000     0.606390000000    -0.151741   
N90      N      0.999350000000     0.972480000000     0.672320000000    -0.110716   
N91      N      0.015010000000     0.991250000000     0.803620000000    -0.112496   
N92      N      0.009150000000     0.991990000000     0.869510000000    -0.157196   
N93      N      0.002850000000     0.985720000000     0.106310000000    -0.149563   
N94      N      0.003240000000     0.980850000000     0.172310000000    -0.109318   
N95      N      0.980690000000     0.995570000000     0.303170000000    -0.112455   
N96      N      0.982470000000     0.992670000000     0.369180000000    -0.155082   
O1       O      0.000300000000     0.995590000000     0.987990000000    -0.368818   
O2       O      0.982370000000     0.972280000000     0.058570000000    -0.293375   
O3       O      0.068830000000     0.024450000000     0.007340000000    -0.29571    
O4       O      0.027360000000     0.924670000000     0.976210000000    -0.299628   
O5       O      0.016960000000     0.010880000000     0.061110000000    -0.295468   
O6       O      0.982330000000     0.922920000000     0.002160000000    -0.293678   
O7       O      0.075030000000     0.985460000000     0.973680000000    -0.29974    
O8       O      0.985940000000     0.010310000000     0.914270000000    -0.304679   
O9       O      0.005870000000     0.068110000000     0.011330000000    -0.302236   
O10      O      0.024270000000     0.975390000000     0.918250000000    -0.303455   
O11      O      0.979860000000     0.065970000000     0.966380000000    -0.303453   
O12      O      0.927900000000     0.010610000000     0.965810000000    -0.302154   
O13      O      0.927860000000     0.976580000000     0.004980000000    -0.302682   
O14      O      0.989890000000     0.984650000000     0.487650000000    -0.36753    
O15      O      0.003380000000     0.007930000000     0.416130000000    -0.292919   
O16      O      0.973320000000     0.912150000000     0.466250000000    -0.297182   
O17      O      0.063550000000     0.966070000000     0.497120000000    -0.297094   
O18      O      0.968300000000     0.969640000000     0.415490000000    -0.299479   
O19      O      0.060560000000     0.007830000000     0.466520000000    -0.292615   
O20      O      0.011350000000     0.912980000000     0.501570000000    -0.288387   
O21      O      0.976260000000     0.998140000000     0.561800000000    -0.301771   
O22      O      0.917300000000     0.964840000000     0.471700000000    -0.300272   
O23      O      0.015210000000     0.964050000000     0.557440000000    -0.292244   
O24      O      0.918630000000     0.996390000000     0.512920000000    -0.294922   
O25      O      0.968110000000     0.055120000000     0.510460000000    -0.29204    
O26      O      0.002850000000     0.058370000000     0.472000000000    -0.301332   
O27      O      0.003260000000     0.494550000000     0.995380000000    -0.370021   
O28      O      0.020350000000     0.424170000000     0.969770000000    -0.292955   
O29      O      0.992750000000     0.474460000000     0.068110000000    -0.299683   
O30      O      0.075390000000     0.510770000000     0.014800000000    -0.299689   
O31      O      0.993680000000     0.421740000000     0.014260000000    -0.29114    
O32      O      0.075080000000     0.476170000000     0.976170000000    -0.292896   
O33      O      0.020070000000     0.518620000000     0.066640000000    -0.300262   
O34      O      0.979550000000     0.565920000000     0.979640000000    -0.303309   
O35      O      0.934250000000     0.469560000000     0.018090000000    -0.292537   
O36      O      0.024250000000     0.566670000000     0.006290000000    -0.305009   
O37      O      0.928750000000     0.507080000000     0.982660000000    -0.303816   
O38      O      0.978430000000     0.512980000000     0.925520000000    -0.30165    
O39      O      0.021720000000     0.484430000000     0.921740000000    -0.302197   
O40      O      0.988700000000     0.484770000000     0.495630000000    -0.37073    
O41      O      0.974740000000     0.413330000000     0.517340000000    -0.298923   
O42      O      0.000350000000     0.464970000000     0.422600000000    -0.301451   
O43      O      0.917040000000     0.502730000000     0.475750000000    -0.29559    
O44      O      0.009950000000     0.412930000000     0.479150000000    -0.298221   
O45      O      0.916570000000     0.461310000000     0.507000000000    -0.303563   
O46      O      0.972730000000     0.508920000000     0.424960000000    -0.292931   
O47      O      0.007140000000     0.555730000000     0.519340000000    -0.301278   
O48      O      0.060120000000     0.470190000000     0.471050000000    -0.300145   
O49      O      0.969000000000     0.557500000000     0.484120000000    -0.304528   
O50      O      0.061120000000     0.500470000000     0.513250000000    -0.300782   
O51      O      0.009080000000     0.496470000000     0.567820000000    -0.298054   
O52      O      0.964740000000     0.469320000000     0.567200000000    -0.299435   
O53      O      0.498840000000     0.995160000000     0.995020000000    -0.367326   
O54      O      0.424590000000     0.979600000000     0.988000000000    -0.302931   
O55      O      0.491600000000     0.019640000000     0.067220000000    -0.298601   
O56      O      0.509360000000     0.922630000000     0.016370000000    -0.300674   
O57      O      0.430370000000     0.019250000000     0.021040000000    -0.29283    
O58      O      0.475770000000     0.924130000000     0.976700000000    -0.299508   
O59      O      0.522400000000     0.977910000000     0.066930000000    -0.300937   
O60      O      0.569880000000     0.004270000000     0.968660000000    -0.29569    
O61      O      0.489590000000     0.068860000000     0.012050000000    -0.304493   
O62      O      0.570040000000     0.968960000000     0.006770000000    -0.298852   
O63      O      0.522260000000     0.064820000000     0.971850000000    -0.302157   
O64      O      0.511160000000     0.010080000000     0.920500000000    -0.298567   
O65      O      0.468240000000     0.981270000000     0.925460000000    -0.302264   
O66      O      0.491490000000     0.007060000000     0.495080000000    -0.369041   
O67      O      0.417270000000     0.022640000000     0.505400000000    -0.301246   
O68      O      0.475610000000     0.988410000000     0.422730000000    -0.298769   
O69      O      0.507380000000     0.080870000000     0.482440000000    -0.293731   
O70      O      0.422340000000     0.979520000000     0.476870000000    -0.29964    
O71      O      0.470240000000     0.076980000000     0.518580000000    -0.298929   
O72      O      0.504680000000     0.031460000000     0.423540000000    -0.29482    
O73      O      0.563760000000     0.000110000000     0.518560000000    -0.292838   
O74      O      0.484140000000     0.933810000000     0.474490000000    -0.302159   
O75      O      0.562410000000     0.028340000000     0.474940000000    -0.296519   
O76      O      0.519960000000     0.937530000000     0.511870000000    -0.284374   
O77      O      0.506320000000     0.987700000000     0.567670000000    -0.289077   
O78      O      0.463020000000     0.016310000000     0.565470000000    -0.300696   
O79      O      0.502740000000     0.494960000000     0.997290000000    -0.368111   
O80      O      0.490630000000     0.476000000000     0.924050000000    -0.296603   
O81      O      0.524460000000     0.566130000000     0.978460000000    -0.292063   
O82      O      0.431430000000     0.520930000000     0.007710000000    -0.300009   
O83      O      0.529750000000     0.509990000000     0.926130000000    -0.298741   
O84      O      0.431530000000     0.483870000000     0.971340000000    -0.29535    
O85      O      0.491530000000     0.567410000000     0.018650000000    -0.302681   
O86      O      0.512980000000     0.473960000000     0.070490000000    -0.294998   
O87      O      0.576600000000     0.511250000000     0.987020000000    -0.293195   
O88      O      0.477220000000     0.511450000000     0.068390000000    -0.299726   
O89      O      0.572060000000     0.473250000000     0.022170000000    -0.299695   
O90      O      0.514050000000     0.421780000000     0.016870000000    -0.294784   
O91      O      0.480230000000     0.424490000000     0.977550000000    -0.286275   
O92      O      0.488850000000     0.506800000000     0.497400000000    -0.36762    
O93      O      0.418590000000     0.526950000000     0.474300000000    -0.290059   
O94      O      0.461330000000     0.437000000000     0.515840000000    -0.29704    
O95      O      0.511170000000     0.488160000000     0.426450000000    -0.297795   
O96      O      0.415710000000     0.498640000000     0.517780000000    -0.300602   
O97      O      0.477310000000     0.527490000000     0.424440000000    -0.300131   
O98      O      0.496380000000     0.433310000000     0.477720000000    -0.292139   
O99      O      0.562840000000     0.520370000000     0.513860000000    -0.301184   
O100     O      0.470720000000     0.491020000000     0.570520000000    -0.299774   
O101     O      0.558180000000     0.476950000000     0.485780000000    -0.297233   
O102     O      0.510160000000     0.524780000000     0.568450000000    -0.299777   
O103     O      0.511480000000     0.578020000000     0.515040000000    -0.303402   
O104     O      0.473360000000     0.580090000000     0.479830000000    -0.293952   
O105     O      0.550370000000     0.432030000000     0.837190000000    -0.267766   
O106     O      0.494810000000     0.401370000000     0.845650000000    -0.179678   
O107     O      0.528860000000     0.419120000000     0.895730000000    -0.158544   
O108     O      0.448630000000     0.434990000000     0.155790000000    -0.265465   
O109     O      0.501640000000     0.399850000000     0.148620000000    -0.179756   
O110     O      0.470560000000     0.420560000000     0.097770000000    -0.152967   
O111     O      0.571740000000     0.851130000000     0.458760000000    -0.269088   
O112     O      0.599520000000     0.864550000000     0.514740000000    -0.179134   
O113     O      0.578890000000     0.911430000000     0.477920000000    -0.158561   
O114     O      0.429040000000     0.348470000000     0.441210000000    -0.267885   
O115     O      0.481200000000     0.354790000000     0.404670000000    -0.179459   
O116     O      0.451100000000     0.406140000000     0.425620000000    -0.157775   
O117     O      0.576320000000     0.655900000000     0.016640000000    -0.269832   
O118     O      0.589370000000     0.648440000000     0.954470000000    -0.184578   
O119     O      0.584780000000     0.597880000000     0.991880000000    -0.158933   
O120     O      0.428740000000     0.334030000000     0.013360000000    -0.264269   
O121     O      0.414950000000     0.342910000000     0.951540000000    -0.179656   
O122     O      0.419970000000     0.392610000000     0.990040000000    -0.150935   
O123     O      0.458990000000     0.927980000000     0.645800000000    -0.269806   
O124     O      0.522110000000     0.917120000000     0.647850000000    -0.180725   
O125     O      0.493290000000     0.924630000000     0.592260000000    -0.156723   
O126     O      0.433830000000     0.050910000000     0.333670000000    -0.266921   
O127     O      0.470610000000     0.101920000000     0.345290000000    -0.178908   
O128     O      0.445030000000     0.070040000000     0.393360000000    -0.158079   
O129     O      0.642610000000     0.450570000000     0.559790000000    -0.26823    
O130     O      0.627010000000     0.399750000000     0.524290000000    -0.180384   
O131     O      0.581570000000     0.437480000000     0.546630000000    -0.1592     
O132     O      0.324240000000     0.581060000000     0.501800000000    -0.274906   
O133     O      0.338310000000     0.588540000000     0.440030000000    -0.180451   
O134     O      0.384910000000     0.588020000000     0.482970000000    -0.166646   
O135     O      0.848270000000     0.423000000000     0.966290000000    -0.268461   
O136     O      0.860000000000     0.391490000000     0.020630000000    -0.181772   
O137     O      0.908100000000     0.413500000000     0.986200000000    -0.158236   
O138     O      0.161440000000     0.431200000000     0.031860000000    -0.262012   
O139     O      0.154850000000     0.402100000000     0.975360000000    -0.176229   
O140     O      0.103550000000     0.418430000000     0.008320000000    -0.137781   
O141     O      0.021120000000     0.422380000000     0.654860000000    -0.26836    
O142     O      0.075490000000     0.454760000000     0.645230000000    -0.182586   
O143     O      0.042140000000     0.433950000000     0.595870000000    -0.160048   
O144     O      0.918440000000     0.478320000000     0.334400000000    -0.269602   
O145     O      0.910370000000     0.541100000000     0.343650000000    -0.184989   
O146     O      0.911760000000     0.501980000000     0.393090000000    -0.158588   
O147     O      0.050370000000     0.826100000000     0.442540000000    -0.266795   
O148     O      0.086500000000     0.835560000000     0.494460000000    -0.180157   
O149     O      0.064640000000     0.885030000000     0.462010000000    -0.155064   
O150     O      0.920390000000     0.142920000000     0.461000000000    -0.267959   
O151     O      0.893210000000     0.132330000000     0.517880000000    -0.181987   
O152     O      0.910370000000     0.083580000000     0.481740000000    -0.157693   
O153     O      0.655840000000     0.074640000000     0.531140000000    -0.267053   
O154     O      0.641390000000     0.044330000000     0.585500000000    -0.177553   
O155     O      0.595150000000     0.068380000000     0.549830000000    -0.158727   
O156     O      0.148700000000     0.972670000000     0.409090000000    -0.271156   
O157     O      0.138170000000     0.034680000000     0.398440000000    -0.179747   
O158     O      0.089060000000     0.995200000000     0.405060000000    -0.16127    
O159     O      0.023390000000     0.839950000000     0.057700000000    -0.266191   
O160     O      0.959920000000     0.839850000000     0.066830000000    -0.185843   
O161     O      0.991150000000     0.894570000000     0.063400000000    -0.154593   
O162     O      0.068590000000     0.338380000000     0.023340000000    -0.25593    
O163     O      0.033570000000     0.338180000000     0.076830000000    -0.17812    
O164     O      0.051890000000     0.392970000000     0.051610000000    -0.14297    
O165     O      0.654030000000     0.939530000000     0.925940000000    -0.274337   
O166     O      0.643310000000     0.991180000000     0.890010000000    -0.179593   
O167     O      0.594320000000     0.959530000000     0.914830000000    -0.167819   
O168     O      0.341510000000     0.974290000000     0.075660000000    -0.267809   
O169     O      0.357670000000     0.031190000000     0.099860000000    -0.179867   
O170     O      0.402800000000     0.990940000000     0.081680000000    -0.157235   
O171     O      0.967240000000     0.916400000000     0.643710000000    -0.268188   
O172     O      0.024400000000     0.889120000000     0.634380000000    -0.181677   
O173     O      0.989300000000     0.906270000000     0.584870000000    -0.157264   
O174     O      0.060530000000     0.949990000000     0.145840000000    -0.263389   
O175     O      0.090780000000     0.006000000000     0.139760000000    -0.180881   
O176     O      0.073270000000     0.974040000000     0.088290000000    -0.153253   
S1       S      0.518120000000     0.429080000000     0.859780000000     0.288633   
S2       S      0.481120000000     0.429460000000     0.134050000000     0.288572   
S3       S      0.571550000000     0.875250000000     0.489940000000     0.288778   
S4       S      0.461570000000     0.369850000000     0.434620000000     0.288456   
S5       S      0.570480000000     0.633290000000     0.984870000000     0.287255   
S6       S      0.434190000000     0.357370000000     0.982050000000     0.289826   
S7       S      0.493870000000     0.936340000000     0.629260000000     0.288772   
S8       S      0.460660000000     0.066580000000     0.357990000000     0.288476   
S9       S      0.617790000000     0.436580000000     0.532490000000     0.288235   
S10      S      0.350380000000     0.572850000000     0.473440000000     0.287552   
S11      S      0.871730000000     0.420750000000     0.997920000000     0.287021   
S12      S      0.139780000000     0.429020000000     0.998980000000     0.288482   
S13      S      0.039530000000     0.448510000000     0.631750000000     0.2879     
S14      S      0.926720000000     0.508860000000     0.357930000000     0.28768    
S15      S      0.056290000000     0.849070000000     0.474030000000     0.289012   
S16      S      0.919980000000     0.119550000000     0.492740000000     0.28812    
S17      S      0.629870000000     0.050880000000     0.549000000000     0.288191   
S18      S      0.125140000000     0.003250000000     0.417150000000     0.287918   
S19      S      0.989420000000     0.858360000000     0.049510000000     0.28803    
S20      S      0.040120000000     0.356900000000     0.043440000000     0.290645   
S21      S      0.630960000000     0.971110000000     0.920880000000     0.287803   
S22      S      0.367150000000     0.004210000000     0.073570000000     0.287568   
S23      S      0.999560000000     0.915900000000     0.621050000000     0.287177   
S24      S      0.063200000000     0.983130000000     0.124660000000     0.290221   
Zn1      Zn     0.973590000000     0.967890000000     0.012410000000     0.461391   
Zn2      Zn     0.022190000000     0.024070000000     0.016220000000     0.457526   
Zn3      Zn     0.030900000000     0.970620000000     0.964910000000     0.453335   
Zn4      Zn     0.974290000000     0.019640000000     0.959060000000     0.448801   
Zn5      Zn     0.013770000000     0.013870000000     0.461750000000     0.460169   
Zn6      Zn     0.963030000000     0.958410000000     0.461030000000     0.455191   
Zn7      Zn     0.019140000000     0.958170000000     0.510630000000     0.464503   
Zn8      Zn     0.964200000000     0.008190000000     0.517390000000     0.455796   
Zn9      Zn     0.029160000000     0.470660000000     0.966230000000     0.45991    
Zn10     Zn     0.981480000000     0.466070000000     0.023300000000     0.463951   
Zn11     Zn     0.029750000000     0.522120000000     0.020220000000     0.455066   
Zn12     Zn     0.972960000000     0.519480000000     0.972040000000     0.452132   
Zn13     Zn     0.961550000000     0.458360000000     0.521120000000     0.456232   
Zn14     Zn     0.013910000000     0.458870000000     0.467550000000     0.452311   
Zn15     Zn     0.962950000000     0.512980000000     0.470970000000     0.459324   
Zn16     Zn     0.015870000000     0.508920000000     0.523030000000     0.456159   
Zn17     Zn     0.468010000000     0.970680000000     0.971650000000     0.452733   
Zn18     Zn     0.477680000000     0.024810000000     0.022630000000     0.457464   
Zn19     Zn     0.524440000000     0.967060000000     0.020750000000     0.45272    
Zn20     Zn     0.524850000000     0.017920000000     0.964930000000     0.454653   
Zn21     Zn     0.461400000000     0.030460000000     0.520220000000     0.455525   
Zn22     Zn     0.469000000000     0.977840000000     0.468290000000     0.458517   
Zn23     Zn     0.515740000000     0.036020000000     0.469350000000     0.457294   
Zn24     Zn     0.519650000000     0.983960000000     0.522660000000     0.46401    
Zn25     Zn     0.476860000000     0.470570000000     0.968590000000     0.463345   
Zn26     Zn     0.532270000000     0.519860000000     0.972520000000     0.455821   
Zn27     Zn     0.476490000000     0.522820000000     0.022450000000     0.454188   
Zn28     Zn     0.525190000000     0.466790000000     0.025560000000     0.459919   
Zn29     Zn     0.465150000000     0.534350000000     0.469550000000     0.456545   
Zn30     Zn     0.460170000000     0.483850000000     0.524880000000     0.453804   
Zn31     Zn     0.512860000000     0.477090000000     0.472490000000     0.459603   
Zn32     Zn     0.517730000000     0.531920000000     0.522420000000     0.455531   


