data_structure

_audit_creation_method RASPA-1.0
_audit_creation_date 2023-5-25
_audit_author_name 'Poobodin Mano'

_cell_length_a    42.7428
_cell_length_b    42.821
_cell_length_c    42.7932
_cell_angle_alpha 90
_cell_angle_beta  90
_cell_angle_gamma 90
_cell_volume      78323.9

_symmetry_cell_setting          triclinic
_symmetry_space_group_name_Hall 'P 1'
_symmetry_space_group_name_H-M  'P 1'
_symmetry_Int_Tables_number     1

_symmetry_equiv_pos_as_xyz 'x,y,z'

loop_
_atom_site_label
_atom_site_type_symbol
_atom_site_fract_x
_atom_site_fract_y
_atom_site_fract_z
_atom_site_charge
C1       C      0.080070000000     0.998570000000     0.998410000000     0.360558   
C2       C      0.991900000000     0.999950000000     0.912330000000     0.36007    
C3       C      0.992560000000     0.914830000000     0.004700000000     0.362296   
C4       C      0.906600000000     0.000910000000     0.997070000000     0.362556   
C5       C      0.994400000000     0.088430000000     0.995440000000     0.358877   
C6       C      0.992160000000     0.007910000000     0.085920000000     0.362772   
C7       C      0.983380000000     0.992600000000     0.412170000000     0.358644   
C8       C      0.075940000000     0.985880000000     0.495130000000     0.35933    
C9       C      0.993870000000     0.078080000000     0.500330000000     0.359744   
C10      C      0.996750000000     0.987290000000     0.586070000000     0.359571   
C11      C      0.982010000000     0.905340000000     0.495500000000     0.362814   
C12      C      0.903170000000     0.998590000000     0.507390000000     0.357946   
C13      C      0.006130000000     0.588680000000     0.994470000000     0.358541   
C14      C      0.000700000000     0.495720000000     0.911240000000     0.364023   
C15      C      0.091100000000     0.503690000000     0.992760000000     0.364533   
C16      C      0.003670000000     0.415330000000     0.001730000000     0.362704   
C17      C      0.917830000000     0.506560000000     0.001270000000     0.365279   
C18      C      0.008670000000     0.501970000000     0.084000000000     0.363542   
C19      C      0.991440000000     0.406000000000     0.497240000000     0.361748   
C20      C      0.991960000000     0.491100000000     0.410550000000     0.361606   
C21      C      0.903870000000     0.492310000000     0.498630000000     0.361905   
C22      C      0.986030000000     0.578550000000     0.498640000000     0.35885    
C23      C      0.077770000000     0.497710000000     0.494810000000     0.362585   
C24      C      0.994850000000     0.489790000000     0.584070000000     0.361394   
C25      C      0.408140000000     0.992320000000     0.997140000000     0.357269   
C26      C      0.503960000000     0.996850000000     0.076980000000     0.36291    
C27      C      0.490240000000     0.905130000000     0.996660000000     0.363261   
C28      C      0.580170000000     0.987390000000     0.981890000000     0.361852   
C29      C      0.496550000000     0.079030000000     0.990700000000     0.36295    
C30      C      0.487930000000     0.991540000000     0.904620000000     0.361159   
C31      C      0.403550000000     0.984780000000     0.485680000000     0.357251   
C32      C      0.492150000000     0.988620000000     0.403560000000     0.361577   
C33      C      0.488680000000     0.072590000000     0.491840000000     0.363033   
C34      C      0.576710000000     0.986720000000     0.493160000000     0.359627   
C35      C      0.493410000000     0.898910000000     0.488080000000     0.361837   
C36      C      0.484890000000     0.983300000000     0.577300000000     0.360448   
C37      C      0.417860000000     0.494230000000     0.985440000000     0.362537   
C38      C      0.503070000000     0.405830000000     0.984660000000     0.36035    
C39      C      0.508620000000     0.496830000000     0.903470000000     0.363744   
C40      C      0.590820000000     0.492480000000     0.994300000000     0.36066    
C41      C      0.499600000000     0.486920000000     0.076920000000     0.362149   
C42      C      0.506730000000     0.579290000000     0.993530000000     0.360816   
C43      C      0.485460000000     0.399810000000     0.491440000000     0.364439   
C44      C      0.405000000000     0.490220000000     0.494560000000     0.359902   
C45      C      0.494360000000     0.485590000000     0.577210000000     0.36167    
C46      C      0.499580000000     0.572190000000     0.492650000000     0.363855   
C47      C      0.484980000000     0.489200000000     0.403210000000     0.36118    
C48      C      0.577740000000     0.477940000000     0.483910000000     0.359106   
C49      C      0.484760000000     0.512750000000     0.821460000000    -0.0319354  
C50      C      0.521520000000     0.470920000000     0.658800000000    -0.0287096  
C51      C      0.469990000000     0.502030000000     0.626710000000    -0.0102613  
C52      C      0.512780000000     0.460540000000     0.625730000000    -0.01021    
C53      C      0.520750000000     0.509360000000     0.719070000000    -0.0562108  
C54      C      0.486070000000     0.473840000000     0.761630000000    -0.0557321  
C55      C      0.498980000000     0.487280000000     0.708020000000     0.0618061  
C56      C      0.480960000000     0.510380000000     0.659660000000    -0.0285754  
C57      C      0.507800000000     0.495950000000     0.772690000000     0.0613257  
C58      C      0.525260000000     0.473110000000     0.821400000000    -0.0584063  
C59      C      0.525050000000     0.513570000000     0.751170000000    -0.0533233  
C60      C      0.535550000000     0.481310000000     0.854780000000     0.0935256  
C61      C      0.492980000000     0.523230000000     0.854620000000    -0.00683183 
C62      C      0.481770000000     0.469620000000     0.729550000000    -0.0536762  
C63      C      0.469640000000     0.468680000000     0.156860000000    -0.0319504  
C64      C      0.506120000000     0.505720000000     0.320700000000    -0.0287604  
C65      C      0.456050000000     0.474970000000     0.355260000000    -0.0102171  
C66      C      0.498820000000     0.516140000000     0.354090000000    -0.0102749  
C67      C      0.465000000000     0.507480000000     0.251330000000    -0.0537351  
C68      C      0.507610000000     0.463350000000     0.228780000000    -0.0530915  
C69      C      0.481880000000     0.489070000000     0.272500000000     0.061744   
C70      C      0.465250000000     0.466440000000     0.321750000000    -0.0287518  
C71      C      0.491000000000     0.482000000000     0.207620000000     0.0612175  
C72      C      0.511020000000     0.507060000000     0.161070000000    -0.0583483  
C73      C      0.469440000000     0.504050000000     0.219140000000    -0.0557086  
C74      C      0.523000000000     0.500290000000     0.127950000000     0.0935453  
C75      C      0.479230000000     0.459740000000     0.123560000000    -0.00710398 
C76      C      0.503160000000     0.466760000000     0.260960000000    -0.0561339  
C77      C      0.484600000000     0.654830000000     0.514980000000    -0.031894   
C78      C      0.505770000000     0.816670000000     0.513870000000    -0.0289175  
C79      C      0.486680000000     0.850460000000     0.457830000000    -0.0105203  
C80      C      0.515340000000     0.850820000000     0.510330000000    -0.00928659 
C81      C      0.476560000000     0.750870000000     0.486550000000    -0.055387   
C82      C      0.534230000000     0.720460000000     0.491340000000    -0.0537279  
C83      C      0.504460000000     0.768380000000     0.484950000000     0.0616339  
C84      C      0.479800000000     0.815870000000     0.463720000000    -0.0286979  
C85      C      0.506620000000     0.702890000000     0.492570000000     0.0612897  
C86      C      0.512280000000     0.653600000000     0.465570000000    -0.0588553  
C87      C      0.477660000000     0.718350000000     0.489350000000    -0.0552651  
C88      C      0.523410000000     0.619920000000     0.470770000000     0.0946558  
C89      C      0.493520000000     0.621100000000     0.522570000000    -0.0070854  
C90      C      0.533170000000     0.752760000000     0.487260000000    -0.0537684  
C91      C      0.500640000000     0.317630000000     0.515800000000    -0.0318677  
C92      C      0.476290000000     0.154980000000     0.517850000000    -0.0289898  
C93      C      0.498900000000     0.121180000000     0.463130000000    -0.0104396  
C94      C      0.466610000000     0.120900000000     0.513550000000    -0.00925814 
C95      C      0.508300000000     0.220570000000     0.491550000000    -0.0552891  
C96      C      0.450860000000     0.251730000000     0.492680000000    -0.0536541  
C97      C      0.480300000000     0.203320000000     0.489040000000     0.06172    
C98      C      0.505870000000     0.155550000000     0.469750000000    -0.0285683  
C99      C      0.478600000000     0.269030000000     0.494590000000     0.0613754  
C100     C      0.474020000000     0.317500000000     0.465850000000    -0.0587928  
C101     C      0.507480000000     0.253150000000     0.493300000000    -0.0551587  
C102     C      0.462920000000     0.351370000000     0.469740000000     0.0948335  
C103     C      0.491800000000     0.351600000000     0.522180000000    -0.00705779 
C104     C      0.451700000000     0.219310000000     0.489600000000    -0.0536806  
C105     C      0.514300000000     0.824630000000     0.017400000000    -0.0314301  
C106     C      0.483780000000     0.661510000000     0.977390000000    -0.028521   
C107     C      0.530770000000     0.627800000000     0.013580000000    -0.0101757  
C108     C      0.493220000000     0.628650000000     0.967330000000    -0.0102874  
C109     C      0.522270000000     0.731430000000     0.978810000000    -0.0534969  
C110     C      0.475990000000     0.753300000000     0.019480000000    -0.0534731  
C111     C      0.504890000000     0.710060000000     0.996490000000     0.0612696  
C112     C      0.519790000000     0.661050000000     0.021080000000    -0.0285997  
C113     C      0.493370000000     0.774660000000     0.001780000000     0.0616264  
C114     C      0.475280000000     0.821920000000     0.976320000000    -0.0585772  
C115     C      0.516630000000     0.763460000000     0.981330000000    -0.0562658  
C116     C      0.464050000000     0.855460000000     0.982680000000     0.0932808  
C117     C      0.504790000000     0.857850000000     0.026220000000    -0.00693391 
C118     C      0.481560000000     0.721240000000     0.016870000000    -0.0557134  
C119     C      0.475380000000     0.162680000000     0.004260000000    -0.0313789  
C120     C      0.526390000000     0.323370000000     0.968140000000    -0.0288136  
C121     C      0.474650000000     0.357320000000     0.996770000000    -0.0109367  
C122     C      0.520470000000     0.357360000000     0.958670000000    -0.0102994  
C123     C      0.481640000000     0.255260000000     0.962340000000    -0.0536393  
C124     C      0.520880000000     0.229650000000     0.007910000000    -0.0529384  
C125     C      0.499720000000     0.275080000000     0.981100000000     0.0615069  
C126     C      0.483060000000     0.323580000000     0.004600000000    -0.027999   
C127     C      0.502740000000     0.209840000000     0.989190000000     0.061099   
C128     C      0.517230000000     0.160250000000     0.966260000000    -0.0583151  
C129     C      0.483060000000     0.222890000000     0.966270000000    -0.0557748  
C130     C      0.525250000000     0.126380000000     0.974690000000     0.0935549  
C131     C      0.480820000000     0.128940000000     0.014800000000    -0.0069856  
C132     C      0.519420000000     0.262020000000     0.004010000000    -0.055872   
C133     C      0.476520000000     0.962910000000     0.823240000000    -0.0320847  
C134     C      0.501330000000     0.961120000000     0.660160000000    -0.0288265  
C135     C      0.461180000000     0.003960000000     0.625440000000    -0.00777044 
C136     C      0.493410000000     0.953810000000     0.626050000000    -0.0105264  
C137     C      0.449500000000     0.982110000000     0.725270000000    -0.0539828  
C138     C      0.506300000000     0.989080000000     0.756850000000    -0.0549018  
C139     C      0.477480000000     0.981840000000     0.708220000000     0.0615107  
C140     C      0.471640000000     0.009230000000     0.659180000000    -0.0285944  
C141     C      0.478000000000     0.990030000000     0.773770000000     0.060885   
C142     C      0.500890000000     0.013820000000     0.820950000000    -0.0574946  
C143     C      0.449730000000     0.986470000000     0.757580000000    -0.0535368  
C144     C      0.493100000000     0.020950000000     0.855260000000     0.0932775  
C145     C      0.466250000000     0.967450000000     0.857140000000    -0.00654084 
C146     C      0.505990000000     0.985990000000     0.724300000000    -0.0555245  
C147     C      0.513710000000     0.971310000000     0.158710000000    -0.0330612  
C148     C      0.513490000000     0.016250000000     0.323890000000    -0.0279787  
C149     C      0.475520000000     0.967460000000     0.352670000000    -0.00946542 
C150     C      0.501210000000     0.021040000000     0.357030000000    -0.00985293 
C151     C      0.527570000000     0.996270000000     0.259880000000    -0.0560841  
C152     C      0.475440000000     0.995220000000     0.220420000000    -0.0550284  
C153     C      0.497270000000     0.995820000000     0.272870000000     0.0617473  
C154     C      0.489660000000     0.965060000000     0.319880000000    -0.0291684  
C155     C      0.505600000000     0.998530000000     0.207520000000     0.0602599  
C156     C      0.488070000000     0.021920000000     0.158300000000    -0.0583699  
C157     C      0.531540000000     0.998270000000     0.227530000000    -0.0530388  
C158     C      0.498830000000     0.028770000000     0.124810000000     0.0932981  
C159     C      0.526690000000     0.976050000000     0.125720000000    -0.00588426 
C160     C      0.471410000000     0.994560000000     0.252790000000    -0.0537441  
C161     C      0.822050000000     0.466190000000     0.513370000000    -0.0318774  
C162     C      0.659740000000     0.499230000000     0.466280000000    -0.0288357  
C163     C      0.626030000000     0.449570000000     0.498500000000    -0.0105682  
C164     C      0.626700000000     0.490430000000     0.455660000000    -0.010523   
C165     C      0.730600000000     0.459940000000     0.468700000000    -0.0536944  
C166     C      0.750620000000     0.504820000000     0.511740000000    -0.0531615  
C167     C      0.708370000000     0.477370000000     0.485270000000     0.0616265  
C168     C      0.659100000000     0.460080000000     0.507350000000    -0.0287742  
C169     C      0.772840000000     0.487440000000     0.495120000000     0.0611186  
C170     C      0.821610000000     0.505360000000     0.472530000000    -0.0582493  
C171     C      0.762580000000     0.464850000000     0.473500000000    -0.0556972  
C172     C      0.854580000000     0.516870000000     0.481010000000     0.0933048  
C173     C      0.854850000000     0.475620000000     0.524200000000    -0.00712311 
C174     C      0.718640000000     0.499900000000     0.506950000000    -0.0561048  
C175     C      0.160690000000     0.475730000000     0.480040000000    -0.0318527  
C176     C      0.324150000000     0.518790000000     0.511620000000    -0.0287279  
C177     C      0.354560000000     0.465160000000     0.482500000000    -0.0102293  
C178     C      0.357870000000     0.510820000000     0.520650000000    -0.010223   
C179     C      0.253650000000     0.479270000000     0.520090000000    -0.0537146  
C180     C      0.229170000000     0.518230000000     0.473700000000    -0.0531498  
C181     C      0.274040000000     0.495120000000     0.499960000000     0.0617934  
C182     C      0.321090000000     0.475500000000     0.475390000000    -0.0286511  
C183     C      0.208770000000     0.502090000000     0.493600000000     0.0611888  
C184     C      0.159640000000     0.519370000000     0.516060000000    -0.0583657  
C185     C      0.221280000000     0.482680000000     0.517040000000    -0.0556947  
C186     C      0.125650000000     0.527520000000     0.507650000000     0.0935233  
C187     C      0.127030000000     0.481580000000     0.469510000000    -0.0069304  
C188     C      0.261550000000     0.514860000000     0.476780000000    -0.0562836  
C189     C      0.836050000000     0.488480000000     0.024890000000    -0.0318909  
C190     C      0.672470000000     0.503260000000     0.023980000000    -0.0286763  
C191     C      0.640510000000     0.484980000000     0.966540000000    -0.0103441  
C192     C      0.638130000000     0.512160000000     0.019990000000    -0.0090576  
C193     C      0.739900000000     0.477340000000     0.996940000000    -0.0554321  
C194     C      0.768240000000     0.535850000000     0.003020000000    -0.0533075  
C195     C      0.721390000000     0.504560000000     0.995910000000     0.0618918  
C196     C      0.675140000000     0.478890000000     0.973200000000    -0.0286466  
C197     C      0.786830000000     0.508930000000     0.003470000000     0.0616456  
C198     C      0.835460000000     0.516530000000     0.975710000000    -0.0589644  
C199     C      0.772410000000     0.479550000000     0.999710000000    -0.0555666  
C200     C      0.868860000000     0.528760000000     0.980380000000     0.0945179  
C201     C      0.869630000000     0.498500000000     0.031960000000    -0.0069969  
C202     C      0.735940000000     0.533710000000     0.998980000000    -0.0541602  
C203     C      0.173180000000     0.478120000000     0.979610000000    -0.0323765  
C204     C      0.334330000000     0.473600000000     0.000340000000    -0.0279245  
C205     C      0.370430000000     0.519360000000     0.964900000000    -0.00930882 
C206     C      0.368080000000     0.465950000000     0.991400000000    -0.0111454  
C207     C      0.269770000000     0.500660000000     0.951510000000    -0.0540845  
C208     C      0.238860000000     0.504030000000     0.008970000000    -0.0547466  
C209     C      0.287050000000     0.498270000000     0.979200000000     0.0617091  
C210     C      0.336910000000     0.524610000000     0.976080000000    -0.0288454  
C211     C      0.221640000000     0.506730000000     0.981010000000     0.0610857  
C212     C      0.174220000000     0.528420000000     0.005300000000    -0.0576156  
C213     C      0.237470000000     0.505130000000     0.952410000000    -0.0535595  
C214     C      0.139520000000     0.534580000000     0.998330000000     0.0923653  
C215     C      0.139030000000     0.481770000000     0.969990000000    -0.00605075 
C216     C      0.271380000000     0.500810000000     0.008080000000    -0.0554016  
C217     C      0.024720000000     0.481240000000     0.828950000000    -0.0318699  
C218     C      0.021560000000     0.505470000000     0.665760000000    -0.0287133  
C219     C      0.974500000000     0.468230000000     0.633290000000    -0.00930674 
C220     C      0.026850000000     0.496860000000     0.631460000000    -0.0104022  
C221     C      0.999500000000     0.455660000000     0.732090000000    -0.0547348  
C222     C      0.998310000000     0.512870000000     0.763480000000    -0.0550567  
C223     C      0.001280000000     0.483420000000     0.714840000000     0.0622228  
C224     C      0.971410000000     0.479260000000     0.667090000000    -0.0292409  
C225     C      0.995790000000     0.484860000000     0.780630000000     0.0609801  
C226     C      0.975930000000     0.509860000000     0.828540000000    -0.0582873  
C227     C      0.996450000000     0.456380000000     0.764540000000    -0.0533026  
C228     C      0.969590000000     0.502890000000     0.863170000000     0.0929022  
C229     C      0.020690000000     0.471570000000     0.863080000000    -0.0060199  
C230     C      0.000050000000     0.512180000000     0.730850000000    -0.0553314  
C231     C      0.982810000000     0.490560000000     0.166250000000    -0.032096   
C232     C      0.974650000000     0.510620000000     0.327040000000    -0.0287392  
C233     C      0.017820000000     0.471890000000     0.363020000000    -0.00940547 
C234     C      0.965520000000     0.500720000000     0.360210000000    -0.0104703  
C235     C      0.003920000000     0.462610000000     0.262240000000    -0.0540612  
C236     C      0.007340000000     0.520490000000     0.232210000000    -0.054949   
C237     C      0.000270000000     0.489980000000     0.279780000000     0.062152   
C238     C      0.024730000000     0.484480000000     0.330400000000    -0.0285442  
C239     C      0.011100000000     0.492820000000     0.214760000000     0.0613318  
C240     C      0.032130000000     0.518060000000     0.167280000000    -0.0579716  
C241     C      0.009600000000     0.464030000000     0.230200000000    -0.0534853  
C242     C      0.038720000000     0.511070000000     0.132580000000     0.0928347  
C243     C      0.987040000000     0.480420000000     0.132420000000    -0.00639315 
C244     C      0.002900000000     0.519100000000     0.264600000000    -0.0556016  
C245     C      0.969870000000     0.823400000000     0.521200000000    -0.0321319  
C246     C      0.997950000000     0.661650000000     0.523210000000    -0.0288893  
C247     C      0.964390000000     0.626390000000     0.475400000000    -0.009748   
C248     C      0.990540000000     0.627180000000     0.529110000000    -0.0110576  
C249     C      0.946390000000     0.725150000000     0.498130000000    -0.053934   
C250     C      0.002450000000     0.758700000000     0.496310000000    -0.0546483  
C251     C      0.974850000000     0.709090000000     0.500540000000     0.0614852  
C252     C      0.974210000000     0.660490000000     0.471910000000    -0.0288182  
C253     C      0.973750000000     0.774640000000     0.493230000000     0.0608848  
C254     C      0.996150000000     0.822720000000     0.471100000000    -0.0583087  
C255     C      0.945860000000     0.757500000000     0.494250000000    -0.0534916  
C256     C      0.987940000000     0.857020000000     0.464480000000     0.0924217  
C257     C      0.959120000000     0.857160000000     0.516950000000    -0.00623799 
C258     C      0.003020000000     0.726140000000     0.498970000000    -0.0552867  
C259     C      0.982520000000     0.323810000000     0.524610000000    -0.0325569  
C260     C      0.014450000000     0.160630000000     0.523070000000    -0.0286145  
C261     C      0.975180000000     0.127430000000     0.478090000000    -0.00930543 
C262     C      0.006830000000     0.126150000000     0.529060000000    -0.0100314  
C263     C      0.961430000000     0.225270000000     0.502420000000    -0.0538286  
C264     C      0.017450000000     0.258790000000     0.499550000000    -0.0543945  
C265     C      0.989900000000     0.209110000000     0.503850000000     0.0613986  
C266     C      0.986060000000     0.161150000000     0.474340000000    -0.0291896  
C267     C      0.988700000000     0.274800000000     0.497220000000     0.0606742  
C268     C      0.011770000000     0.323330000000     0.476280000000    -0.0579673  
C269     C      0.960840000000     0.257640000000     0.498790000000    -0.0533233  
C270     C      0.002960000000     0.357280000000     0.468600000000     0.0931965  
C271     C      0.970890000000     0.357130000000     0.519300000000    -0.00615843 
C272     C      0.018050000000     0.226190000000     0.501870000000    -0.0551048  
C273     C      0.658380000000     0.973590000000     0.521360000000    -0.0318875  
C274     C      0.821260000000     0.016750000000     0.486080000000    -0.0275131  
C275     C      0.854840000000     0.985250000000     0.536300000000    -0.0123441  
C276     C      0.854510000000     0.027080000000     0.494400000000    -0.0108917  
C277     C      0.750630000000     0.016710000000     0.525550000000    -0.052427   
C278     C      0.729710000000     0.972410000000     0.482320000000    -0.0532676  
C279     C      0.772510000000     0.999090000000     0.508700000000     0.0598076  
C280     C      0.821550000000     0.976700000000     0.526260000000    -0.0289643  
C281     C      0.707840000000     0.990020000000     0.499170000000     0.0602147  
C282     C      0.659320000000     0.012500000000     0.480360000000    -0.0578484  
C283     C      0.718540000000     0.012300000000     0.520890000000    -0.0549669  
C284     C      0.626370000000     0.003780000000     0.469000000000     0.0946494  
C285     C      0.625490000000     0.962640000000     0.512390000000    -0.00728387 
C286     C      0.761780000000     0.976840000000     0.486960000000    -0.0557664  
C287     C      0.160300000000     0.005610000000     0.506770000000    -0.0298051  
C288     C      0.321670000000     0.959540000000     0.468060000000    -0.0287923  
C289     C      0.353970000000     0.010870000000     0.499190000000    -0.0101752  
C290     C      0.355530000000     0.967010000000     0.458970000000    -0.0105437  
C291     C      0.251960000000     0.001750000000     0.463400000000    -0.0499808  
C292     C      0.227360000000     0.960660000000     0.507820000000    -0.0541516  
C293     C      0.272340000000     0.983920000000     0.481830000000     0.0595308  
C294     C      0.320330000000     0.001100000000     0.506380000000    -0.0268349  
C295     C      0.207000000000     0.978740000000     0.489620000000     0.0622781  
C296     C      0.156470000000     0.965090000000     0.467560000000    -0.0580321  
C297     C      0.219560000000     0.999260000000     0.467170000000    -0.0593041  
C298     C      0.122600000000     0.957130000000     0.476690000000     0.0931995  
C299     C      0.126870000000     0.999980000000     0.518200000000    -0.00949833 
C300     C      0.259760000000     0.963150000000     0.504040000000    -0.0551623  
C301     C      0.016860000000     0.833450000000     0.023600000000    -0.0301994  
C302     C      0.982610000000     0.670800000000     0.977520000000    -0.0289789  
C303     C      0.031180000000     0.637550000000     0.011910000000    -0.0100216  
C304     C      0.991550000000     0.637620000000     0.967550000000    -0.0109169  
C305     C      0.981260000000     0.730430000000     0.017030000000    -0.0561683  
C306     C      0.018860000000     0.773210000000     0.984890000000    -0.0559777  
C307     C      0.004460000000     0.719500000000     0.996380000000     0.0615804  
C308     C      0.020210000000     0.670580000000     0.019900000000    -0.0285131  
C309     C      0.995620000000     0.784130000000     0.005500000000     0.0614131  
C310     C      0.979060000000     0.832500000000     0.981400000000    -0.0563452  
C311     C      0.976940000000     0.762490000000     0.021460000000    -0.0531732  
C312     C      0.967130000000     0.865400000000     0.989160000000     0.093563   
C313     C      0.007480000000     0.866710000000     0.032980000000    -0.00488476 
C314     C      0.023180000000     0.741150000000     0.980470000000    -0.0536685  
C315     C      0.020350000000     0.332700000000     0.980130000000    -0.0318085  
C316     C      0.977810000000     0.171100000000     0.017320000000    -0.0285702  
C317     C      0.013750000000     0.136750000000     0.970620000000    -0.0100182  
C318     C      0.968100000000     0.137790000000     0.008950000000    -0.00996549 
C319     C      0.016340000000     0.231330000000     0.017720000000    -0.0551732  
C320     C      0.982180000000     0.272400000000     0.979990000000    -0.0568183  
C321     C      0.996170000000     0.219360000000     0.994610000000     0.0606179  
C322     C      0.021010000000     0.170290000000     0.980750000000    -0.0290575  
C323     C      0.002400000000     0.284370000000     0.003050000000     0.0621149  
C324     C      0.977680000000     0.333380000000     0.017330000000    -0.057998   
C325     C      0.019370000000     0.263590000000     0.021790000000    -0.0538341  
C326     C      0.984910000000     0.367080000000     0.027460000000     0.0928656  
C327     C      0.030180000000     0.366000000000     0.988360000000    -0.00764701 
C328     C      0.979160000000     0.240160000000     0.975900000000    -0.0531797  
C329     C      0.662510000000     0.966260000000     0.998940000000    -0.0326541  
C330     C      0.825100000000     0.971580000000     0.985450000000    -0.0299955  
C331     C      0.856880000000     0.029130000000     0.003540000000    -0.00984678 
C332     C      0.859430000000     0.975580000000     0.976710000000    -0.00946694 
C333     C      0.757350000000     0.998210000000     0.010450000000    -0.0565271  
C334     C      0.729800000000     0.990190000000     0.951750000000    -0.0537594  
C335     C      0.776110000000     0.999300000000     0.983380000000     0.0610244  
C336     C      0.822100000000     0.022580000000     0.009250000000    -0.0285187  
C337     C      0.710970000000     0.989420000000     0.978510000000     0.0606259  
C338     C      0.661290000000     0.014870000000     0.969840000000    -0.0581923  
C339     C      0.724960000000     0.994280000000     0.007970000000    -0.0546033  
C340     C      0.628100000000     0.008590000000     0.957700000000     0.0954413  
C341     C      0.629280000000     0.957690000000     0.988850000000    -0.00727899 
C342     C      0.761920000000     0.995380000000     0.954130000000    -0.0537585  
C343     C      0.162250000000     0.988140000000     0.025750000000    -0.0331376  
C344     C      0.326330000000     0.011140000000     0.022970000000    -0.028559   
C345     C      0.358280000000     0.972210000000     0.976910000000    -0.00938412 
C346     C      0.360730000000     0.002580000000     0.028340000000    -0.00869341 
C347     C      0.259740000000     0.960710000000     0.003450000000    -0.0540541  
C348     C      0.228290000000     0.017730000000     0.998610000000    -0.0541835  
C349     C      0.276990000000     0.988530000000     0.003710000000     0.0606503  
C350     C      0.324580000000     0.983550000000     0.973730000000    -0.0303424  
C351     C      0.211170000000     0.989590000000     0.997520000000     0.0594944  
C352     C      0.163480000000     0.012820000000     0.974970000000    -0.0576844  
C353     C      0.227280000000     0.961220000000     0.000090000000    -0.0526056  
C354     C      0.129000000000     0.005000000000     0.968400000000     0.0939436  
C355     C      0.128270000000     0.977780000000     0.021820000000    -0.00595558 
C356     C      0.260960000000     0.017170000000     0.000730000000    -0.0543332  
C357     C      0.975770000000     0.973910000000     0.830780000000    -0.030769   
C358     C      0.016140000000     0.010190000000     0.667450000000    -0.0283506  
C359     C      0.983710000000     0.959760000000     0.635110000000    -0.0104703  
C360     C      0.025630000000     0.001730000000     0.634010000000    -0.00853525 
C361     C      0.977770000000     0.009430000000     0.727940000000    -0.0552349  
C362     C      0.013880000000     0.975010000000     0.770240000000    -0.0554341  
C363     C      0.999790000000     0.987690000000     0.716690000000     0.0600762  
C364     C      0.976020000000     0.970090000000     0.668440000000    -0.0291128  
C365     C      0.991760000000     0.996640000000     0.781470000000     0.0594544  
C366     C      0.014920000000     0.014780000000     0.829860000000    -0.0547596  
C367     C      0.973860000000     0.013770000000     0.760070000000    -0.0518798  
C368     C      0.006320000000     0.026020000000     0.862850000000     0.0941499  
C369     C      0.965640000000     0.982430000000     0.864020000000    -0.00624979 
C370     C      0.017760000000     0.970630000000     0.738090000000    -0.0534028  
C371     C      0.006450000000     0.986580000000     0.168920000000    -0.0314738  
C372     C      0.964170000000     0.020050000000     0.331820000000    -0.0285638  
C373     C      0.997430000000     0.968570000000     0.361660000000    -0.0110946  
C374     C      0.955130000000     0.010230000000     0.365020000000    -0.00860489 
C375     C      0.962140000000     0.982050000000     0.259870000000    -0.0526892  
C376     C      0.004580000000     0.026870000000     0.238400000000    -0.0538567  
C377     C      0.979660000000     0.999320000000     0.281480000000     0.0596537  
C378     C      0.004500000000     0.980390000000     0.328670000000    -0.0282196  
C379     C      0.987260000000     0.009410000000     0.216790000000     0.0625518  
C380     C      0.964620000000     0.024720000000     0.167010000000    -0.0581846  
C381     C      0.965850000000     0.986950000000     0.227780000000    -0.0575024  
C382     C      0.973210000000     0.034730000000     0.133560000000     0.0933837  
C383     C      0.017560000000     0.994770000000     0.135990000000    -0.00878904 
C384     C      0.000900000000     0.021940000000     0.270490000000    -0.0540283  
H1       H      0.464920000000     0.452590000000     0.721370000000     0.045489   
H2       H      0.475080000000     0.533180000000     0.808590000000     0.0356376  
H3       H      0.545720000000     0.463670000000     0.808340000000     0.0483687  
H4       H      0.448590000000     0.487370000000     0.628500000000     0.0412627  
H5       H      0.507310000000     0.544850000000     0.853240000000     0.0372099  
H6       H      0.531510000000     0.450490000000     0.671440000000     0.0354668  
H7       H      0.460560000000     0.519590000000     0.672970000000     0.0353066  
H8       H      0.534660000000     0.454920000000     0.612840000000     0.0445821  
H9       H      0.540470000000     0.458780000000     0.866810000000     0.0256143  
H10      H      0.472450000000     0.459910000000     0.777770000000     0.0415103  
H11      H      0.470900000000     0.529290000000     0.866950000000     0.0440116  
H12      H      0.534310000000     0.523320000000     0.702910000000     0.0414524  
H13      H      0.466280000000     0.494450000000     0.822610000000     0.0386879  
H14      H      0.463360000000     0.523980000000     0.614490000000     0.0447649  
H15      H      0.539890000000     0.489320000000     0.657450000000     0.0380179  
H16      H      0.498910000000     0.529190000000     0.658250000000     0.0379503  
H17      H      0.541860000000     0.530630000000     0.759350000000     0.0449016  
H18      H      0.507200000000     0.454370000000     0.822460000000     0.0441022  
H19      H      0.498780000000     0.438710000000     0.627270000000     0.0411768  
H20      H      0.560920000000     0.521300000000     0.843990000000     0.0920523  
H21      H      0.573530000000     0.501860000000     0.876590000000     0.0940944  
H22      H      0.516550000000     0.452280000000     0.276800000000     0.0417868  
H23      H      0.458760000000     0.447910000000     0.168110000000     0.035648   
H24      H      0.530920000000     0.515380000000     0.175680000000     0.0484084  
H25      H      0.435040000000     0.490270000000     0.354470000000     0.040978   
H26      H      0.492490000000     0.437420000000     0.124400000000     0.0377769  
H27      H      0.515570000000     0.526130000000     0.307640000000     0.0357067  
H28      H      0.444110000000     0.457510000000     0.309460000000     0.0355272  
H29      H      0.521200000000     0.522400000000     0.365770000000     0.0453825  
H30      H      0.528990000000     0.523280000000     0.117350000000     0.0254455  
H31      H      0.524320000000     0.446350000000     0.220250000000     0.0450284  
H32      H      0.457640000000     0.455440000000     0.109720000000     0.0436732  
H33      H      0.448610000000     0.524770000000     0.259860000000     0.0454156  
H34      H      0.451760000000     0.487580000000     0.155870000000     0.0382615  
H35      H      0.449390000000     0.453190000000     0.367760000000     0.0450965  
H36      H      0.524530000000     0.487310000000     0.321320000000     0.0388678  
H37      H      0.482980000000     0.447380000000     0.322340000000     0.0386074  
H38      H      0.456380000000     0.518820000000     0.203300000000     0.0414148  
H39      H      0.493430000000     0.526230000000     0.160020000000     0.0439915  
H40      H      0.484210000000     0.537610000000     0.353080000000     0.0408474  
H41      H      0.546930000000     0.459210000000     0.137830000000     0.0923356  
H42      H      0.562030000000     0.480340000000     0.107410000000     0.0945816  
H43      H      0.554840000000     0.765840000000     0.486430000000     0.045175   
H44      H      0.481660000000     0.667850000000     0.537300000000     0.0352384  
H45      H      0.529640000000     0.665830000000     0.450500000000     0.0478199  
H46      H      0.505990000000     0.852250000000     0.440520000000     0.0406792  
H47      H      0.513030000000     0.621340000000     0.539750000000     0.0364151  
H48      H      0.523380000000     0.804970000000     0.529060000000     0.0348369  
H49      H      0.478280000000     0.803690000000     0.440800000000     0.035137   
H50      H      0.513380000000     0.862340000000     0.533560000000     0.0435065  
H51      H      0.521750000000     0.607830000000     0.447780000000     0.0241628  
H52      H      0.556700000000     0.708940000000     0.493370000000     0.0454616  
H53      H      0.473240000000     0.609670000000     0.534130000000     0.044285   
H54      H      0.453920000000     0.762040000000     0.485430000000     0.0409798  
H55      H      0.461780000000     0.654670000000     0.502440000000     0.0381283  
H56      H      0.465660000000     0.861340000000     0.447060000000     0.0448777  
H57      H      0.482580000000     0.815020000000     0.525670000000     0.0391968  
H58      H      0.456700000000     0.813990000000     0.475590000000     0.0372304  
H59      H      0.455850000000     0.705600000000     0.489460000000     0.0410334  
H60      H      0.489500000000     0.653550000000     0.452920000000     0.0453754  
H61      H      0.540330000000     0.851860000000     0.503140000000     0.0422814  
H62      H      0.558780000000     0.629490000000     0.502750000000     0.0921801  
H63      H      0.564920000000     0.596930000000     0.480390000000     0.0957505  
H64      H      0.429940000000     0.206460000000     0.487980000000     0.0453524  
H65      H      0.503090000000     0.305300000000     0.538570000000     0.0352935  
H66      H      0.456970000000     0.304880000000     0.450740000000     0.047836   
H67      H      0.480940000000     0.119810000000     0.444390000000     0.0412559  
H68      H      0.472110000000     0.352020000000     0.539150000000     0.0368127  
H69      H      0.457760000000     0.166880000000     0.531730000000     0.0349358  
H70      H      0.509330000000     0.167810000000     0.447080000000     0.0352069  
H71      H      0.467030000000     0.109170000000     0.536750000000     0.0430491  
H72      H      0.465240000000     0.362850000000     0.446500000000     0.0236356  
H73      H      0.428460000000     0.263540000000     0.493290000000     0.0456222  
H74      H      0.512030000000     0.363270000000     0.533620000000     0.0444134  
H75      H      0.530850000000     0.209160000000     0.491780000000     0.0409344  
H76      H      0.523690000000     0.317280000000     0.503680000000     0.03796    
H77      H      0.520520000000     0.110060000000     0.453880000000     0.0451791  
H78      H      0.498560000000     0.156360000000     0.531320000000     0.03913    
H79      H      0.528020000000     0.156980000000     0.483370000000     0.0372218  
H80      H      0.529440000000     0.265630000000     0.494070000000     0.0409577  
H81      H      0.497090000000     0.317060000000     0.453730000000     0.0452943  
H82      H      0.442110000000     0.120150000000     0.504840000000     0.0429545  
H83      H      0.426750000000     0.343070000000     0.501190000000     0.0924281  
H84      H      0.421110000000     0.374660000000     0.477350000000     0.0966434  
H85      H      0.467550000000     0.705210000000     0.030520000000     0.0415458  
H86      H      0.523550000000     0.812860000000     0.038680000000     0.0354952  
H87      H      0.455400000000     0.808030000000     0.966830000000     0.0481298  
H88      H      0.553770000000     0.629150000000     0.001520000000     0.0412553  
H89      H      0.489380000000     0.856850000000     0.047120000000     0.0366713  
H90      H      0.476190000000     0.674630000000     0.956230000000     0.0353795  
H91      H      0.539390000000     0.673780000000     0.032520000000     0.0354882  
H92      H      0.471970000000     0.616480000000     0.958590000000     0.0453179  
H93      H      0.459730000000     0.866470000000     0.959500000000     0.0248958  
H94      H      0.458000000000     0.761580000000     0.035270000000     0.0449269  
H95      H      0.526270000000     0.870820000000     0.033040000000     0.0443257  
H96      H      0.540090000000     0.723140000000     0.962850000000     0.0452685  
H97      H      0.533420000000     0.825620000000     0.999740000000     0.0383769  
H98      H      0.534420000000     0.615050000000     0.035920000000     0.0445883  
H99      H      0.463520000000     0.660100000000     0.993720000000     0.0384618  
H100     H      0.499940000000     0.659900000000     0.037900000000     0.0380115  
H101     H      0.530340000000     0.779450000000     0.967340000000     0.0414176  
H102     H      0.493900000000     0.822520000000     0.958120000000     0.0438656  
H103     H      0.509930000000     0.630470000000     0.947490000000     0.0410568  
H104     H      0.437420000000     0.845670000000     0.022140000000     0.092109   
H105     H      0.425130000000     0.877440000000     0.001190000000     0.0944879  
H106     H      0.533460000000     0.276820000000     0.018970000000     0.041571   
H107     H      0.465720000000     0.176060000000     0.024370000000     0.0356536  
H108     H      0.538730000000     0.172070000000     0.957490000000     0.0485561  
H109     H      0.454460000000     0.357310000000     0.980370000000     0.0413686  
H110     H      0.493680000000     0.129210000000     0.037380000000     0.0377808  
H111     H      0.537010000000     0.310940000000     0.947900000000     0.0356949  
H112     H      0.461310000000     0.311230000000     0.011840000000     0.0353073  
H113     H      0.543440000000     0.369090000000     0.955270000000     0.0446722  
H114     H      0.530060000000     0.114070000000     0.952280000000     0.0254239  
H115     H      0.536130000000     0.219920000000     0.025610000000     0.0450248  
H116     H      0.457680000000     0.117900000000     0.019180000000     0.0435199  
H117     H      0.466260000000     0.265000000000     0.944750000000     0.0454729  
H118     H      0.457680000000     0.162970000000     0.985150000000     0.0377635  
H119     H      0.466900000000     0.369020000000     0.018640000000     0.0453837  
H120     H      0.543460000000     0.322820000000     0.987800000000     0.0379775  
H121     H      0.499660000000     0.323250000000     0.024670000000     0.0382074  
H122     H      0.468820000000     0.208090000000     0.951510000000     0.041419   
H123     H      0.499730000000     0.160340000000     0.946960000000     0.043799   
H124     H      0.508100000000     0.357610000000     0.935810000000     0.0414683  
H125     H      0.549900000000     0.135210000000     0.015610000000     0.0922094  
H126     H      0.561720000000     0.102530000000     0.995820000000     0.0943693  
H127     H      0.528070000000     0.986570000000     0.712000000000     0.0408908  
H128     H      0.459570000000     0.946780000000     0.811830000000     0.0352163  
H129     H      0.502270000000     0.036120000000     0.807640000000     0.048222   
H130     H      0.436950000000     0.994490000000     0.625530000000     0.0411384  
H131     H      0.441050000000     0.973900000000     0.857510000000     0.0385525  
H132     H      0.504980000000     0.938720000000     0.672840000000     0.035056   
H133     H      0.453290000000     0.023260000000     0.671170000000     0.035382   
H134     H      0.514470000000     0.943660000000     0.614680000000     0.0449428  
H135     H      0.514290000000     0.031950000000     0.865650000000     0.0254509  
H136     H      0.528660000000     0.991130000000     0.768470000000     0.0406095  
H137     H      0.468680000000     0.944750000000     0.869550000000     0.0426713  
H138     H      0.427340000000     0.979330000000     0.713310000000     0.044974   
H139     H      0.500050000000     0.951750000000     0.822420000000     0.0390709  
H140     H      0.460590000000     0.026950000000     0.613330000000     0.043713   
H141     H      0.523590000000     0.974600000000     0.660680000000     0.0374097  
H142     H      0.493840000000     0.022870000000     0.659640000000     0.0398287  
H143     H      0.427770000000     0.986800000000     0.770200000000     0.0442401  
H144     H      0.524350000000     0.002530000000     0.820090000000     0.0430579  
H145     H      0.474850000000     0.935610000000     0.625600000000     0.0405211  
H146     H      0.446680000000     0.033810000000     0.848920000000     0.0929116  
H147     H      0.464860000000     0.051630000000     0.879790000000     0.093478   
H148     H      0.447980000000     0.993230000000     0.262360000000     0.04478    
H149     H      0.530180000000     0.955920000000     0.171730000000     0.0350196  
H150     H      0.485290000000     0.044360000000     0.171160000000     0.0485759  
H151     H      0.450450000000     0.974070000000     0.350550000000     0.0421511  
H152     H      0.551400000000     0.983990000000     0.127430000000     0.0370239  
H153     H      0.515820000000     0.039500000000     0.312490000000     0.0357201  
H154     H      0.474230000000     0.949820000000     0.305500000000     0.0346435  
H155     H      0.519480000000     0.033350000000     0.370840000000     0.0453069  
H156     H      0.478790000000     0.040170000000     0.112730000000     0.0262744  
H157     H      0.454900000000     0.993890000000     0.205750000000     0.041069   
H158     H      0.526620000000     0.953130000000     0.113490000000     0.0424311  
H159     H      0.548190000000     0.995940000000     0.274490000000     0.0411381  
H160     H      0.490590000000     0.959360000000     0.157550000000     0.0396568  
H161     H      0.476590000000     0.944050000000     0.363920000000     0.0429741  
H162     H      0.537090000000     0.005360000000     0.325370000000     0.0380564  
H163     H      0.513200000000     0.953960000000     0.321060000000     0.0388584  
H164     H      0.554950000000     0.999780000000     0.217950000000     0.0436957  
H165     H      0.464740000000     0.010440000000     0.157000000000     0.0443669  
H166     H      0.480450000000     0.036660000000     0.355990000000     0.0407429  
H167     H      0.544600000000     0.041220000000     0.135640000000     0.0921325  
H168     H      0.530100000000     0.057950000000     0.102320000000     0.0904759  
H169     H      0.701970000000     0.513700000000     0.520060000000     0.0416125  
H170     H      0.809070000000     0.456750000000     0.533850000000     0.03561    
H171     H      0.808150000000     0.525080000000     0.462180000000     0.0483432  
H172     H      0.627800000000     0.428300000000     0.483700000000     0.0406249  
H173     H      0.852670000000     0.490380000000     0.545460000000     0.0374445  
H174     H      0.672920000000     0.508040000000     0.445640000000     0.0356434  
H175     H      0.671810000000     0.439710000000     0.517350000000     0.0354534  
H176     H      0.614520000000     0.512020000000     0.447900000000     0.0448325  
H177     H      0.866930000000     0.521370000000     0.458550000000     0.0254189  
H178     H      0.758160000000     0.522290000000     0.528420000000     0.0449414  
H179     H      0.867720000000     0.454110000000     0.531010000000     0.0437248  
H180     H      0.723060000000     0.442540000000     0.451950000000     0.0453372  
H181     H      0.824030000000     0.447260000000     0.495630000000     0.0382888  
H182     H      0.613390000000     0.443020000000     0.520230000000     0.0452714  
H183     H      0.658240000000     0.518430000000     0.483770000000     0.0385742  
H184     H      0.657570000000     0.478480000000     0.525680000000     0.0387025  
H185     H      0.779250000000     0.451120000000     0.460330000000     0.0413672  
H186     H      0.823540000000     0.486790000000     0.454390000000     0.0438374  
H187     H      0.628540000000     0.474640000000     0.435120000000     0.0406606  
H188     H      0.842330000000     0.543170000000     0.519960000000     0.092134   
H189     H      0.874860000000     0.556160000000     0.500580000000     0.0943389  
H190     H      0.276790000000     0.527370000000     0.460940000000     0.0416073  
H191     H      0.173660000000     0.464830000000     0.460280000000     0.0356852  
H192     H      0.171980000000     0.541040000000     0.523490000000     0.0482564  
H193     H      0.353730000000     0.444860000000     0.498670000000     0.0404089  
H194     H      0.127480000000     0.493900000000     0.446640000000     0.0372079  
H195     H      0.312710000000     0.530280000000     0.531970000000     0.0354724  
H196     H      0.307310000000     0.454530000000     0.468500000000     0.0353718  
H197     H      0.371030000000     0.533010000000     0.523780000000     0.0446244  
H198     H      0.113680000000     0.533740000000     0.529910000000     0.0251182  
H199     H      0.219870000000     0.533240000000     0.455570000000     0.0448715  
H200     H      0.115590000000     0.458580000000     0.465660000000     0.0442388  
H201     H      0.262930000000     0.464000000000     0.538010000000     0.0454362  
H202     H      0.160630000000     0.458940000000     0.499920000000     0.0386365  
H203     H      0.365490000000     0.457040000000     0.460350000000     0.0444398  
H204     H      0.324330000000     0.535690000000     0.491830000000     0.0381178  
H205     H      0.321300000000     0.491980000000     0.455250000000     0.0381847  
H206     H      0.206040000000     0.469950000000     0.532720000000     0.0414126  
H207     H      0.159670000000     0.502980000000     0.536280000000     0.0438331  
H208     H      0.357670000000     0.498600000000     0.543580000000     0.0414241  
H209     H      0.134700000000     0.549850000000     0.465470000000     0.0921055  
H210     H      0.101940000000     0.562760000000     0.484510000000     0.0947345  
H211     H      0.722050000000     0.554860000000     0.998590000000     0.0454352  
H212     H      0.823510000000     0.484920000000     0.047410000000     0.035324   
H213     H      0.822330000000     0.533540000000     0.960990000000     0.0478931  
H214     H      0.638670000000     0.504130000000     0.949080000000     0.0406642  
H215     H      0.869030000000     0.517800000000     0.049320000000     0.0364631  
H216     H      0.683450000000     0.520550000000     0.040030000000     0.035003   
H217     H      0.687980000000     0.478250000000     0.950580000000     0.0352454  
H218     H      0.625940000000     0.508610000000     0.042690000000     0.0423941  
H219     H      0.880610000000     0.527690000000     0.957170000000     0.0238478  
H220     H      0.778970000000     0.558640000000     0.005470000000     0.0455445  
H221     H      0.881990000000     0.478560000000     0.043130000000     0.0442045  
H222     H      0.729520000000     0.454380000000     0.995240000000     0.0408634  
H223     H      0.836780000000     0.465830000000     0.012160000000     0.0380742  
H224     H      0.630340000000     0.463730000000     0.955570000000     0.0444874  
H225     H      0.674430000000     0.479760000000     0.035010000000     0.0386738  
H226     H      0.677390000000     0.455610000000     0.984560000000     0.0367004  
H227     H      0.786000000000     0.458270000000     0.999230000000     0.0409481  
H228     H      0.836070000000     0.493900000000     0.962860000000     0.045047   
H229     H      0.636650000000     0.537450000000     0.014250000000     0.043334   
H230     H      0.858650000000     0.563470000000     0.012830000000     0.0923264  
H231     H      0.890600000000     0.570910000000     0.989910000000     0.095843   
H232     H      0.283990000000     0.499830000000     0.029950000000     0.0410792  
H233     H      0.184870000000     0.462820000000     0.962090000000     0.0352058  
H234     H      0.186840000000     0.551110000000     0.007030000000     0.0480836  
H235     H      0.369950000000     0.512730000000     0.939770000000     0.0422042  
H236     H      0.138030000000     0.488870000000     0.945010000000     0.0386341  
H237     H      0.320820000000     0.451410000000     0.001650000000     0.0349782  
H238     H      0.325300000000     0.540930000000     0.959470000000     0.0350652  
H239     H      0.379170000000     0.453200000000     0.011140000000     0.0453937  
H240     H      0.129090000000     0.544520000000     0.020000000000     0.0256481  
H241     H      0.227440000000     0.504540000000     0.031500000000     0.0408872  
H242     H      0.127430000000     0.458590000000     0.972000000000     0.0423109  
H243     H      0.281490000000     0.499190000000     0.929120000000     0.0452474  
H244     H      0.174740000000     0.466420000000     0.002820000000     0.0392659  
H245     H      0.383400000000     0.541800000000     0.966880000000     0.0436981  
H246     H      0.334390000000     0.484610000000     0.023910000000     0.0374188  
H247     H      0.336980000000     0.535750000000     0.999620000000     0.0392273  
H248     H      0.224560000000     0.506800000000     0.930690000000     0.0444754  
H249     H      0.175900000000     0.516540000000     0.028390000000     0.0427228  
H250     H      0.367780000000     0.449850000000     0.971010000000     0.0406863  
H251     H      0.144500000000     0.549050000000     0.952270000000     0.0925554  
H252     H      0.113420000000     0.565300000000     0.971580000000     0.0935687  
H253     H      0.000710000000     0.534140000000     0.718440000000     0.0410861  
H254     H      0.038880000000     0.462930000000     0.817040000000     0.0350833  
H255     H      0.953250000000     0.513050000000     0.816150000000     0.0480964  
H256     H      0.982240000000     0.443430000000     0.633230000000     0.0419858  
H257     H      0.012020000000     0.447100000000     0.863910000000     0.0384919  
H258     H      0.044730000000     0.507620000000     0.677440000000     0.0350974  
H259     H      0.956620000000     0.462080000000     0.679860000000     0.0350346  
H260     H      0.037870000000     0.517090000000     0.619450000000     0.0451402  
H261     H      0.960830000000     0.524960000000     0.873810000000     0.0257107  
H262     H      0.998510000000     0.535330000000     0.775000000000     0.0408551  
H263     H      0.044060000000     0.472010000000     0.874530000000     0.0423276  
H264     H      0.000040000000     0.433340000000     0.720190000000     0.045454   
H265     H      0.037840000000     0.503680000000     0.827500000000     0.0393366  
H266     H      0.950990000000     0.469200000000     0.622160000000     0.0436233  
H267     H      0.009650000000     0.528570000000     0.666650000000     0.0375802  
H268     H      0.959390000000     0.502340000000     0.667900000000     0.0394246  
H269     H      0.994890000000     0.434610000000     0.777330000000     0.0441427  
H270     H      0.989150000000     0.532210000000     0.827030000000     0.0430234  
H271     H      0.043770000000     0.477170000000     0.630380000000     0.0406291  
H272     H      0.952580000000     0.457780000000     0.857750000000     0.0924148  
H273     H      0.937690000000     0.477500000000     0.889220000000     0.0930183  
H274     H      0.000950000000     0.540760000000     0.277420000000     0.04116    
H275     H      0.967900000000     0.472820000000     0.178100000000     0.0353219  
H276     H      0.054700000000     0.520760000000     0.179980000000     0.0479986  
H277     H      0.010290000000     0.447110000000     0.361040000000     0.0419529  
H278     H      0.994920000000     0.455670000000     0.131970000000     0.0382746  
H279     H      0.952960000000     0.513210000000     0.312890000000     0.0350437  
H280     H      0.041040000000     0.467940000000     0.318660000000     0.034855   
H281     H      0.953440000000     0.520600000000     0.371790000000     0.0448533  
H282     H      0.047320000000     0.533140000000     0.121810000000     0.0249113  
H283     H      0.007780000000     0.543130000000     0.221050000000     0.0409945  
H284     H      0.963800000000     0.481440000000     0.120740000000     0.0429706  
H285     H      0.002410000000     0.440040000000     0.273560000000     0.0452917  
H286     H      0.970380000000     0.513410000000     0.167300000000     0.0391757  
H287     H      0.039910000000     0.472360000000     0.376780000000     0.0438726  
H288     H      0.986510000000     0.533740000000     0.328290000000     0.0372203  
H289     H      0.036570000000     0.507610000000     0.332010000000     0.039237   
H290     H      0.012030000000     0.442520000000     0.217100000000     0.0445592  
H291     H      0.019340000000     0.540660000000     0.168850000000     0.0426613  
H292     H      0.948370000000     0.481260000000     0.358600000000     0.0402256  
H293     H      0.055900000000     0.466050000000     0.138020000000     0.0920481  
H294     H      0.071290000000     0.486030000000     0.106950000000     0.0937338  
H295     H      0.025470000000     0.714580000000     0.500060000000     0.0411212  
H296     H      0.952520000000     0.811310000000     0.536390000000     0.0352473  
H297     H      0.998520000000     0.809960000000     0.448540000000     0.048036   
H298     H      0.939160000000     0.625490000000     0.481670000000     0.0418548  
H299     H      0.934250000000     0.857190000000     0.509300000000     0.0382059  
H300     H      0.998490000000     0.674060000000     0.546060000000     0.0350981  
H301     H      0.957270000000     0.672140000000     0.455940000000     0.0351742  
H302     H      0.010840000000     0.616330000000     0.541210000000     0.0452187  
H303     H      0.009230000000     0.867990000000     0.454300000000     0.0258372  
H304     H      0.024460000000     0.771120000000     0.496310000000     0.0409969  
H305     H      0.960200000000     0.869030000000     0.540060000000     0.0428223  
H306     H      0.924520000000     0.712410000000     0.498880000000     0.0452683  
H307     H      0.992960000000     0.822810000000     0.533260000000     0.0392673  
H308     H      0.967190000000     0.614660000000     0.452370000000     0.0438244  
H309     H      0.021600000000     0.663240000000     0.512420000000     0.0375156  
H310     H      0.997870000000     0.661950000000     0.461060000000     0.0390622  
H311     H      0.923580000000     0.769390000000     0.492300000000     0.044481   
H312     H      0.019240000000     0.822060000000     0.483130000000     0.0432171  
H313     H      0.970230000000     0.625720000000     0.545280000000     0.0405256  
H314     H      0.942050000000     0.850000000000     0.450100000000     0.0923813  
H315     H      0.959980000000     0.881810000000     0.433790000000     0.0929062  
H316     H      0.040520000000     0.214610000000     0.502320000000     0.0409163  
H317     H      0.964790000000     0.311360000000     0.539030000000     0.0352764  
H318     H      0.016000000000     0.310360000000     0.454130000000     0.0480922  
H319     H      0.950370000000     0.127410000000     0.485940000000     0.0433855  
H320     H      0.946380000000     0.356210000000     0.510600000000     0.0388739  
H321     H      0.017560000000     0.172530000000     0.545980000000     0.035173   
H322     H      0.968360000000     0.173710000000     0.459970000000     0.0351189  
H323     H      0.028300000000     0.114330000000     0.537770000000     0.0444691  
H324     H      0.024620000000     0.368920000000     0.460030000000     0.0255013  
H325     H      0.039480000000     0.271180000000     0.499030000000     0.0408509  
H326     H      0.970570000000     0.369440000000     0.542200000000     0.0426211  
H327     H      0.939560000000     0.212560000000     0.503540000000     0.0453005  
H328     H      0.004920000000     0.324120000000     0.537910000000     0.0398007  
H329     H      0.975960000000     0.115900000000     0.454790000000     0.043306   
H330     H      0.036940000000     0.162000000000     0.510020000000     0.0367818  
H331     H      0.008770000000     0.161930000000     0.461580000000     0.039391   
H332     H      0.938510000000     0.269520000000     0.497360000000     0.0443056  
H333     H      0.034010000000     0.323460000000     0.489840000000     0.0429882  
H334     H      0.989140000000     0.124760000000     0.548060000000     0.0411859  
H335     H      0.958560000000     0.348810000000     0.450830000000     0.0926748  
H336     H      0.977030000000     0.380610000000     0.435060000000     0.0936743  
H337     H      0.778160000000     0.962970000000     0.473570000000     0.0414528  
H338     H      0.671140000000     0.953480000000     0.531820000000     0.035578   
H339     H      0.672990000000     0.021890000000     0.460290000000     0.0485713  
H340     H      0.853480000000     0.000540000000     0.557260000000     0.0416921  
H341     H      0.627470000000     0.940500000000     0.498960000000     0.0377908  
H342     H      0.808340000000     0.037340000000     0.476820000000     0.0355717  
H343     H      0.808830000000     0.967420000000     0.546970000000     0.0352648  
H344     H      0.866650000000     0.034100000000     0.472530000000     0.0455822  
H345     H      0.614150000000     0.026090000000     0.463540000000     0.0252329  
H346     H      0.721820000000     0.955240000000     0.465500000000     0.0449076  
H347     H      0.612420000000     0.957300000000     0.534220000000     0.0438751  
H348     H      0.758520000000     0.033940000000     0.542310000000     0.0452458  
H349     H      0.656560000000     0.992250000000     0.539410000000     0.0379784  
H350     H      0.867200000000     0.963490000000     0.543250000000     0.0454102  
H351     H      0.822360000000     0.998770000000     0.467310000000     0.0379986  
H352     H      0.822650000000     0.957890000000     0.508310000000     0.038552   
H353     H      0.702140000000     0.026270000000     0.534140000000     0.0415377  
H354     H      0.657470000000     0.031400000000     0.498150000000     0.0440633  
H355     H      0.853090000000     0.048020000000     0.509690000000     0.0409169  
H356     H      0.638310000000     0.963660000000     0.444400000000     0.0922039  
H357     H      0.606300000000     0.983020000000     0.430160000000     0.0948028  
H358     H      0.274960000000     0.949180000000     0.518660000000     0.0413199  
H359     H      0.174370000000     0.014580000000     0.526750000000     0.0355776  
H360     H      0.167870000000     0.943810000000     0.457830000000     0.048283   
H361     H      0.353430000000     0.031840000000     0.483860000000     0.0417533  
H362     H      0.127800000000     0.986280000000     0.540250000000     0.0380736  
H363     H      0.309640000000     0.949410000000     0.447330000000     0.0356015  
H364     H      0.307250000000     0.022080000000     0.514480000000     0.035422   
H365     H      0.368020000000     0.944660000000     0.454550000000     0.0449062  
H366     H      0.109520000000     0.953260000000     0.454530000000     0.0250284  
H367     H      0.218040000000     0.944820000000     0.525210000000     0.0451081  
H368     H      0.116220000000     0.022990000000     0.523880000000     0.0450782  
H369     H      0.261290000000     0.017900000000     0.446290000000     0.0449707  
H370     H      0.160080000000     0.023860000000     0.488230000000     0.0382608  
H371     H      0.365390000000     0.017810000000     0.521490000000     0.0454856  
H372     H      0.321640000000     0.941660000000     0.486960000000     0.0381945  
H373     H      0.320400000000     0.983680000000     0.525710000000     0.0374718  
H374     H      0.204360000000     0.013530000000     0.452860000000     0.0430252  
H375     H      0.156200000000     0.983120000000     0.448800000000     0.0434237  
H376     H      0.355400000000     0.980380000000     0.436690000000     0.0415796  
H377     H      0.132460000000     0.930990000000     0.516410000000     0.0922717  
H378     H      0.098930000000     0.920310000000     0.497320000000     0.0953012  
H379     H      0.041150000000     0.733090000000     0.964560000000     0.0453233  
H380     H      0.025220000000     0.820990000000     0.044840000000     0.0360876  
H381     H      0.959830000000     0.818830000000     0.970380000000     0.0430838  
H382     H      0.053390000000     0.639160000000     0.998460000000     0.0405297  
H383     H      0.991800000000     0.865400000000     0.053680000000     0.0427993  
H384     H      0.974460000000     0.683760000000     0.956490000000     0.0353101  
H385     H      0.040130000000     0.683400000000     0.030680000000     0.0357218  
H386     H      0.969980000000     0.625230000000     0.959970000000     0.044181   
H387     H      0.962050000000     0.877250000000     0.966550000000     0.0211908  
H388     H      0.033510000000     0.789430000000     0.972170000000     0.041303   
H389     H      0.028900000000     0.879570000000     0.040180000000     0.0429886  
H390     H      0.966520000000     0.714220000000     0.029670000000     0.041548   
H391     H      0.036580000000     0.834590000000     0.006630000000     0.037837   
H392     H      0.036410000000     0.625130000000     0.034120000000     0.0454419  
H393     H      0.962840000000     0.669630000000     0.994440000000     0.0377763  
H394     H      0.000970000000     0.669250000000     0.037400000000     0.0385447  
H395     H      0.958900000000     0.770550000000     0.037280000000     0.0465518  
H396     H      0.998380000000     0.834300000000     0.964020000000     0.0431431  
H397     H      0.007390000000     0.639090000000     0.946980000000     0.0411649  
H398     H      0.930510000000     0.885730000000     0.013130000000     0.0932127  
H399     H      0.920620000000     0.852590000000     0.993640000000     0.0808808  
H400     H      0.963480000000     0.231280000000     0.958120000000     0.0451405  
H401     H      0.041490000000     0.319700000000     0.972260000000     0.0353837  
H402     H      0.966660000000     0.320740000000     0.037230000000     0.0481101  
H403     H      0.001380000000     0.137440000000     0.947770000000     0.0403172  
H404     H      0.050810000000     0.364980000000     0.004150000000     0.0375268  
H405     H      0.956550000000     0.184120000000     0.024850000000     0.0356414  
H406     H      0.032090000000     0.182690000000     0.960740000000     0.035235   
H407     H      0.960130000000     0.125960000000     0.030670000000     0.0447133  
H408     H      0.962030000000     0.379260000000     0.030010000000     0.0247515  
H409     H      0.968840000000     0.287950000000     0.965160000000     0.0414064  
H410     H      0.037780000000     0.377820000000     0.966500000000     0.0439592  
H411     H      0.029630000000     0.215780000000     0.032580000000     0.0413032  
H412     H      0.003410000000     0.333360000000     0.960360000000     0.0382309  
H413     H      0.036250000000     0.124220000000     0.966950000000     0.044003   
H414     H      0.994450000000     0.170460000000     0.037350000000     0.0379672  
H415     H      0.038100000000     0.169810000000     0.000390000000     0.0381006  
H416     H      0.035040000000     0.272460000000     0.039580000000     0.0449871  
H417     H      0.960410000000     0.333890000000     0.997840000000     0.0432065  
H418     H      0.947780000000     0.138840000000     0.992760000000     0.0410547  
H419     H      0.022630000000     0.357200000000     0.056470000000     0.0917558  
H420     H      0.001800000000     0.389770000000     0.066720000000     0.0941527  
H421     H      0.776010000000     0.995790000000     0.933090000000     0.0451489  
H422     H      0.675910000000     0.944340000000     0.002960000000     0.0354566  
H423     H      0.673840000000     0.029650000000     0.952460000000     0.0480692  
H424     H      0.858980000000     0.046400000000     0.984250000000     0.0411876  
H425     H      0.630710000000     0.940320000000     0.969600000000     0.0359287  
H426     H      0.814300000000     0.955280000000     0.968270000000     0.034687   
H427     H      0.809270000000     0.045190000000     0.009440000000     0.0355023  
H428     H      0.871550000000     0.952860000000     0.980350000000     0.0418455  
H429     H      0.615550000000     0.031390000000     0.958090000000     0.0241547  
H430     H      0.719410000000     0.986960000000     0.928890000000     0.0452695  
H431     H      0.617330000000     0.946080000000     0.008790000000     0.044228   
H432     H      0.767440000000     0.000560000000     0.033490000000     0.0418157  
H433     H      0.661110000000     0.979330000000     0.021380000000     0.038178   
H434     H      0.866860000000     0.040230000000     0.024820000000     0.0445544  
H435     H      0.823030000000     0.960840000000     0.009080000000     0.0386717  
H436     H      0.819530000000     0.011530000000     0.032660000000     0.0369431  
H437     H      0.711160000000     0.994620000000     0.029130000000     0.040464   
H438     H      0.660110000000     0.028240000000     0.992160000000     0.0451062  
H439     H      0.861040000000     0.981300000000     0.951400000000     0.0428681  
H440     H      0.639880000000     0.975780000000     0.923830000000     0.0917965  
H441     H      0.606650000000     0.996670000000     0.916040000000     0.0949062  
H442     H      0.273440000000     0.039120000000     0.000190000000     0.0408637  
H443     H      0.174060000000     0.971190000000     0.041570000000     0.0353313  
H444     H      0.176390000000     0.014410000000     0.952420000000     0.0480988  
H445     H      0.358090000000     0.947520000000     0.984990000000     0.0417184  
H446     H      0.127870000000     0.952610000000     0.015410000000     0.0387805  
H447     H      0.314760000000     0.014050000000     0.046090000000     0.0353513  
H448     H      0.311540000000     0.966150000000     0.959430000000     0.0352096  
H449     H      0.373020000000     0.023280000000     0.038120000000     0.0445873  
H450     H      0.118260000000     0.026270000000     0.957950000000     0.0251525  
H451     H      0.216680000000     0.040120000000     0.997320000000     0.0406822  
H452     H      0.116260000000     0.980170000000     0.044770000000     0.0423121  
H453     H      0.271660000000     0.938470000000     0.005310000000     0.0452787  
H454     H      0.163210000000     0.011580000000     0.037000000000     0.0401271  
H455     H      0.369340000000     0.972680000000     0.953380000000     0.0433504  
H456     H      0.325390000000     0.033880000000     0.010400000000     0.0372664  
H457     H      0.323950000000     0.006330000000     0.961160000000     0.0399538  
H458     H      0.214510000000     0.939380000000     0.999660000000     0.0439204  
H459     H      0.164550000000     0.036130000000     0.986450000000     0.0427755  
H460     H      0.361870000000     0.983830000000     0.046290000000     0.0395702  
H461     H      0.135160000000     0.958880000000     0.954740000000     0.0924478  
H462     H      0.104020000000     0.977280000000     0.937590000000     0.0932675  
H463     H      0.034800000000     0.953850000000     0.729780000000     0.0450356  
H464     H      0.955250000000     0.963880000000     0.818300000000     0.0359278  
H465     H      0.024440000000     0.034770000000     0.816190000000     0.0432641  
H466     H      0.998860000000     0.938680000000     0.636240000000     0.0402104  
H467     H      0.943670000000     0.996280000000     0.862720000000     0.043108   
H468     H      0.037070000000     0.019540000000     0.679770000000     0.0356295  
H469     H      0.966970000000     0.949530000000     0.681530000000     0.0354021  
H470     H      0.032040000000     0.023570000000     0.621490000000     0.0447205  
H471     H      0.028520000000     0.032560000000     0.874820000000     0.0209931  
H472     H      0.028080000000     0.961570000000     0.786290000000     0.0411089  
H473     H      0.960230000000     0.960490000000     0.876820000000     0.043418   
H474     H      0.963620000000     0.022950000000     0.711920000000     0.0418367  
H475     H      0.994310000000     0.955660000000     0.831890000000     0.0375622  
H476     H      0.961540000000     0.952900000000     0.623360000000     0.0451138  
H477     H      0.998070000000     0.028920000000     0.666720000000     0.0386385  
H478     H      0.957230000000     0.988100000000     0.667670000000     0.0385128  
H479     H      0.956820000000     0.030540000000     0.768380000000     0.0466342  
H480     H      0.033740000000     0.996860000000     0.831580000000     0.0422299  
H481     H      0.046840000000     0.986720000000     0.634930000000     0.0394471  
H482     H      0.979800000000     0.060800000000     0.883240000000     0.0942406  
H483     H      0.998660000000     0.072070000000     0.850160000000     0.0814749  
H484     H      0.014800000000     0.035540000000     0.286670000000     0.0414454  
H485     H      0.026980000000     0.978210000000     0.182570000000     0.0353978  
H486     H      0.953700000000     0.044850000000     0.179370000000     0.0483323  
H487     H      0.982820000000     0.947160000000     0.359870000000     0.0407156  
H488     H      0.038310000000     0.010320000000     0.137800000000     0.0382471  
H489     H      0.943060000000     0.029820000000     0.320150000000     0.0357915  
H490     H      0.013600000000     0.960490000000     0.314600000000     0.0355184  
H491     H      0.949110000000     0.031580000000     0.378540000000     0.0446821  
H492     H      0.950790000000     0.037950000000     0.120710000000     0.025249   
H493     H      0.021230000000     0.044120000000     0.230280000000     0.0452413  
H494     H      0.025330000000     0.972880000000     0.124380000000     0.0445577  
H495     H      0.945780000000     0.964520000000     0.267970000000     0.0450578  
H496     H      0.989140000000     0.967160000000     0.167570000000     0.0383475  
H497     H      0.019890000000     0.961820000000     0.372900000000     0.0454469  
H498     H      0.982200000000     0.038790000000     0.333060000000     0.0384853  
H499     H      0.023090000000     0.998580000000     0.329860000000     0.0382015  
H500     H      0.952300000000     0.973010000000     0.211600000000     0.0416792  
H501     H      0.946890000000     0.005690000000     0.165850000000     0.0441292  
H502     H      0.933750000000     0.995480000000     0.363800000000     0.0398068  
H503     H      0.011290000000     0.062700000000     0.144910000000     0.092337   
H504     H      0.992100000000     0.073360000000     0.111470000000     0.0944476  
N1       N      0.511010000000     0.499120000000     0.871610000000    -0.172304   
N2       N      0.512930000000     0.501030000000     0.805640000000    -0.109714   
N3       N      0.493540000000     0.482430000000     0.675090000000    -0.113623   
N4       N      0.494040000000     0.484410000000     0.609200000000    -0.158559   
N5       N      0.564670000000     0.499310000000     0.853960000000    -0.195261   
N6       N      0.499200000000     0.483840000000     0.108820000000    -0.171892   
N7       N      0.497310000000     0.478660000000     0.174640000000    -0.109607   
N8       N      0.477480000000     0.494160000000     0.305580000000    -0.113666   
N9       N      0.481450000000     0.491870000000     0.371480000000    -0.158246   
N10      N      0.551710000000     0.481680000000     0.129530000000    -0.195312   
N11      N      0.503890000000     0.603830000000     0.494450000000    -0.172484   
N12      N      0.509220000000     0.669380000000     0.495860000000    -0.109412   
N13      N      0.504840000000     0.802100000000     0.482870000000    -0.113147   
N14      N      0.496260000000     0.867120000000     0.486590000000    -0.158633   
N15      N      0.556270000000     0.619780000000     0.480470000000    -0.195519   
N16      N      0.481870000000     0.368100000000     0.493440000000    -0.172601   
N17      N      0.476270000000     0.302660000000     0.496690000000    -0.109309   
N18      N      0.479670000000     0.169600000000     0.487030000000    -0.113008   
N19      N      0.486920000000     0.104470000000     0.490950000000    -0.158749   
N20      N      0.429810000000     0.351870000000     0.478590000000    -0.195585   
N21      N      0.487650000000     0.873460000000     0.000560000000    -0.172167   
N22      N      0.487030000000     0.807600000000     0.005290000000    -0.109774   
N23      N      0.510560000000     0.677110000000     0.992140000000    -0.113725   
N24      N      0.508490000000     0.611240000000     0.993000000000    -0.158417   
N25      N      0.434340000000     0.854860000000     0.999710000000    -0.195651   
N26      N      0.499320000000     0.110910000000     0.991810000000    -0.172489   
N27      N      0.505060000000     0.176550000000     0.993900000000    -0.10977    
N28      N      0.496720000000     0.308410000000     0.977010000000    -0.113718   
N29      N      0.501000000000     0.374020000000     0.981850000000    -0.158191   
N30      N      0.553860000000     0.125550000000     0.993510000000    -0.195262   
N31      N      0.484360000000     0.992350000000     0.872820000000    -0.172499   
N32      N      0.476830000000     0.993290000000     0.807410000000    -0.109821   
N33      N      0.475630000000     0.978890000000     0.674580000000    -0.113584   
N34      N      0.481810000000     0.981600000000     0.609100000000    -0.158847   
N35      N      0.467600000000     0.043740000000     0.856820000000    -0.195193   
N36      N      0.508430000000     0.999770000000     0.108510000000    -0.17296    
N37      N      0.510920000000     0.001720000000     0.174300000000    -0.108614   
N38      N      0.491660000000     0.996420000000     0.306200000000    -0.113695   
N39      N      0.491710000000     0.991260000000     0.371720000000    -0.159304   
N40      N      0.524810000000     0.051060000000     0.125160000000    -0.195213   
N41      N      0.871830000000     0.493530000000     0.499980000000    -0.171957   
N42      N      0.805650000000     0.493490000000     0.500540000000    -0.109664   
N43      N      0.675550000000     0.471700000000     0.479480000000    -0.113739   
N44      N      0.609420000000     0.474040000000     0.480670000000    -0.158012   
N45      N      0.852540000000     0.546490000000     0.497990000000    -0.195185   
N46      N      0.109580000000     0.500980000000     0.492190000000    -0.172018   
N47      N      0.175480000000     0.505400000000     0.488950000000    -0.109706   
N48      N      0.307280000000     0.490100000000     0.503230000000    -0.113596   
N49      N      0.373060000000     0.490290000000     0.497360000000    -0.158188   
N50      N      0.124970000000     0.555010000000     0.487300000000    -0.195251   
N51      N      0.886050000000     0.509670000000     0.003620000000    -0.172915   
N52      N      0.820320000000     0.512700000000     0.006250000000    -0.109329   
N53      N      0.687680000000     0.503770000000     0.993290000000    -0.113141   
N54      N      0.622770000000     0.494200000000     0.994790000000    -0.15875    
N55      N      0.868040000000     0.561480000000     0.990340000000    -0.195611   
N56      N      0.122820000000     0.505640000000     0.988990000000    -0.172857   
N57      N      0.187930000000     0.509030000000     0.980430000000    -0.109548   
N58      N      0.320550000000     0.494530000000     0.976820000000    -0.113529   
N59      N      0.385990000000     0.494220000000     0.982710000000    -0.158765   
N60      N      0.136700000000     0.558070000000     0.973620000000    -0.195239   
N61      N      0.998130000000     0.491890000000     0.879580000000    -0.172717   
N62      N      0.993790000000     0.484100000000     0.814380000000    -0.109476   
N63      N      0.002660000000     0.481190000000     0.681140000000    -0.113183   
N64      N      0.997580000000     0.487050000000     0.615810000000    -0.158727   
N65      N      0.944790000000     0.479460000000     0.865910000000    -0.195208   
N66      N      0.010440000000     0.499790000000     0.115880000000    -0.172302   
N67      N      0.013640000000     0.492560000000     0.181080000000    -0.109354   
N68      N      0.995270000000     0.486920000000     0.313050000000    -0.1136     
N69      N      0.992730000000     0.489850000000     0.378600000000    -0.158886   
N70      N      0.063720000000     0.487820000000     0.130120000000    -0.195364   
N71      N      0.978100000000     0.873680000000     0.493270000000    -0.172341   
N72      N      0.971700000000     0.808240000000     0.490510000000    -0.109436   
N73      N      0.973950000000     0.675400000000     0.502760000000    -0.113278   
N74      N      0.982530000000     0.610300000000     0.500010000000    -0.158291   
N75      N      0.963050000000     0.858690000000     0.441030000000    -0.195176   
N76      N      0.990260000000     0.374040000000     0.496210000000    -0.171966   
N77      N      0.986510000000     0.308410000000     0.494250000000    -0.109302   
N78      N      0.988900000000     0.175350000000     0.505370000000    -0.11295    
N79      N      0.994140000000     0.110050000000     0.501180000000    -0.158066   
N80      N      0.980020000000     0.357770000000     0.443200000000    -0.195395   
N81      N      0.608800000000     0.985870000000     0.492940000000    -0.171874   
N82      N      0.674930000000     0.984870000000     0.493470000000    -0.109902   
N83      N      0.805450000000     0.004500000000     0.514050000000    -0.112968   
N84      N      0.871540000000     0.002250000000     0.511310000000    -0.156792   
N85      N      0.628520000000     0.985630000000     0.440060000000    -0.195735   
N86      N      0.107880000000     0.982540000000     0.495140000000    -0.171076   
N87      N      0.173730000000     0.976270000000     0.495070000000    -0.110343   
N88      N      0.305670000000     0.988210000000     0.478130000000    -0.11385    
N89      N      0.371590000000     0.985910000000     0.483040000000    -0.157748   
N90      N      0.122000000000     0.927930000000     0.494520000000    -0.195231   
N91      N      0.990700000000     0.882980000000     0.007510000000    -0.169514   
N92      N      0.989820000000     0.817040000000     0.010110000000    -0.106572   
N93      N      0.009860000000     0.686580000000     0.991340000000    -0.113652   
N94      N      0.007890000000     0.620610000000     0.992780000000    -0.158121   
N95      N      0.938030000000     0.863280000000     0.007090000000    -0.18964    
N96      N      0.004870000000     0.383420000000     0.004290000000    -0.171862   
N97      N      0.006620000000     0.317520000000     0.007680000000    -0.109666   
N98      N      0.991970000000     0.186220000000     0.989950000000    -0.113695   
N99      N      0.993660000000     0.120370000000     0.993480000000    -0.158599   
N100     N      0.000260000000     0.366980000000     0.058060000000    -0.195127   
N101     N      0.611820000000     0.985290000000     0.977500000000    -0.173056   
N102     N      0.677670000000     0.985110000000     0.974480000000    -0.109799   
N103     N      0.809800000000     0.002200000000     0.984460000000    -0.112176   
N104     N      0.874660000000     0.000790000000     0.994760000000    -0.158441   
N105     N      0.629280000000     0.997750000000     0.925260000000    -0.195854   
N106     N      0.111970000000     0.995740000000     0.997190000000    -0.172481   
N107     N      0.177430000000     0.988630000000     0.995030000000    -0.109604   
N108     N      0.310740000000     0.986350000000     0.004950000000    -0.113237   
N109     N      0.376210000000     0.991130000000     0.999600000000    -0.158693   
N110     N      0.127110000000     0.979900000000     0.945230000000    -0.195916   
N111     N      0.989610000000     0.001250000000     0.880380000000    -0.168403   
N112     N      0.987030000000     0.001940000000     0.814450000000    -0.105829   
N113     N      0.004330000000     0.982290000000     0.683680000000    -0.113717   
N114     N      0.000530000000     0.984430000000     0.617750000000    -0.158531   
N115     N      0.986410000000     0.053780000000     0.860790000000    -0.19001    
N116     N      0.993020000000     0.011040000000     0.117810000000    -0.171532   
N117     N      0.992750000000     0.014290000000     0.183840000000    -0.10975    
N118     N      0.975820000000     0.992850000000     0.314390000000    -0.113908   
N119     N      0.980250000000     0.992040000000     0.380280000000    -0.158533   
N120     N      0.989390000000     0.064860000000     0.134220000000    -0.195466   
O1       O      0.993350000000     0.001720000000     0.999250000000    -0.366142   
O2       O      0.064750000000     0.983400000000     0.018990000000    -0.306138   
O3       O      0.010180000000     0.018680000000     0.926580000000    -0.306601   
O4       O      0.976140000000     0.928690000000     0.984090000000    -0.309309   
O5       O      0.065870000000     0.015520000000     0.978400000000    -0.305718   
O6       O      0.009760000000     0.930520000000     0.023360000000    -0.304316   
O7       O      0.974870000000     0.980910000000     0.927670000000    -0.305294   
O8       O      0.920330000000     0.021590000000     0.013540000000    -0.303991   
O9       O      0.014020000000     0.072940000000     0.979140000000    -0.303402   
O10      O      0.922380000000     0.980840000000     0.981770000000    -0.308294   
O11      O      0.974700000000     0.074360000000     0.012800000000    -0.305422   
O12      O      0.973120000000     0.024320000000     0.069860000000    -0.306088   
O13      O      0.011040000000     0.989180000000     0.072470000000    -0.306778   
O14      O      0.989430000000     0.991520000000     0.499270000000    -0.366786   
O15      O      0.966030000000     0.010540000000     0.428440000000    -0.303904   
O16      O      0.059200000000     0.968450000000     0.477640000000    -0.305874   
O17      O      0.011050000000     0.062530000000     0.519110000000    -0.303005   
O18      O      0.003010000000     0.974530000000     0.425450000000    -0.304327   
O19      O      0.975540000000     0.064140000000     0.481400000000    -0.304964   
O20      O      0.063150000000     0.005620000000     0.513490000000    -0.303331   
O21      O      0.976630000000     0.970440000000     0.572010000000    -0.305137   
O22      O      0.000120000000     0.919400000000     0.476460000000    -0.307175   
O23      O      0.013910000000     0.006210000000     0.570730000000    -0.303031   
O24      O      0.966900000000     0.920580000000     0.516160000000    -0.306815   
O25      O      0.917980000000     0.978800000000     0.524040000000    -0.303998   
O26      O      0.917680000000     0.015430000000     0.487530000000    -0.303032   
O27      O      0.004480000000     0.502110000000     0.997550000000    -0.368146   
O28      O      0.022490000000     0.574150000000     0.014700000000    -0.304765   
O29      O      0.982870000000     0.515000000000     0.925300000000    -0.30806    
O30      O      0.075780000000     0.483130000000     0.977660000000    -0.308797   
O31      O      0.988910000000     0.573670000000     0.975240000000    -0.304001   
O32      O      0.077020000000     0.523080000000     0.010420000000    -0.308314   
O33      O      0.020270000000     0.479240000000     0.926520000000    -0.307341   
O34      O      0.984130000000     0.430870000000     0.018060000000    -0.307351   
O35      O      0.932720000000     0.522520000000     0.981020000000    -0.309974   
O36      O      0.022880000000     0.429340000000     0.983790000000    -0.308062   
O37      O      0.932360000000     0.488330000000     0.019780000000    -0.307534   
O38      O      0.988400000000     0.485690000000     0.069510000000    -0.310041   
O39      O      0.027730000000     0.519360000000     0.069010000000    -0.305989   
O40      O      0.990950000000     0.492430000000     0.497400000000    -0.367974   
O41      O      0.973470000000     0.420760000000     0.515900000000    -0.306094   
O42      O      0.011380000000     0.474920000000     0.426250000000    -0.307318   
O43      O      0.918520000000     0.509630000000     0.479290000000    -0.306933   
O44      O      0.009750000000     0.420740000000     0.478880000000    -0.306449   
O45      O      0.918880000000     0.474530000000     0.517250000000    -0.305642   
O46      O      0.971630000000     0.507950000000     0.424360000000    -0.3048     
O47      O      0.002770000000     0.564560000000     0.518990000000    -0.303977   
O48      O      0.063800000000     0.476300000000     0.479530000000    -0.306144   
O49      O      0.971720000000     0.563160000000     0.477490000000    -0.305373   
O50      O      0.062240000000     0.516700000000     0.511760000000    -0.306888   
O51      O      0.013510000000     0.507490000000     0.569040000000    -0.304691   
O52      O      0.974160000000     0.473890000000     0.569690000000    -0.30566    
O53      O      0.494330000000     0.991980000000     0.991170000000    -0.368963   
O54      O      0.421850000000     0.975550000000     0.976660000000    -0.305498   
O55      O      0.484410000000     0.014570000000     0.063170000000    -0.306838   
O56      O      0.509760000000     0.920380000000     0.013140000000    -0.307853   
O57      O      0.423920000000     0.009450000000     0.015810000000    -0.301989   
O58      O      0.472650000000     0.919280000000     0.977190000000    -0.306635   
O59      O      0.519750000000     0.976780000000     0.061650000000    -0.306694   
O60      O      0.564490000000     0.007370000000     0.966320000000    -0.308545   
O61      O      0.477150000000     0.065110000000     0.008540000000    -0.305469   
O62      O      0.566600000000     0.969250000000     0.001260000000    -0.306098   
O63      O      0.514370000000     0.063410000000     0.972710000000    -0.309862   
O64      O      0.505280000000     0.011670000000     0.918100000000    -0.307002   
O65      O      0.473070000000     0.971220000000     0.920570000000    -0.306505   
O66      O      0.490020000000     0.985630000000     0.490370000000    -0.367173   
O67      O      0.417430000000     0.003330000000     0.504470000000    -0.302565   
O68      O      0.475180000000     0.968140000000     0.416960000000    -0.304521   
O69      O      0.507350000000     0.058350000000     0.473560000000    -0.306133   
O70      O      0.419240000000     0.965960000000     0.468630000000    -0.301966   
O71      O      0.470670000000     0.057320000000     0.509990000000    -0.305515   
O72      O      0.508720000000     0.007390000000     0.419620000000    -0.306083   
O73      O      0.561520000000     0.968780000000     0.511540000000    -0.304548   
O74      O      0.475900000000     0.913200000000     0.468670000000    -0.30465    
O75      O      0.562270000000     0.004690000000     0.474230000000    -0.305793   
O76      O      0.509140000000     0.914070000000     0.508320000000    -0.305929   
O77      O      0.504050000000     0.965330000000     0.563250000000    -0.304828   
O78      O      0.467930000000     0.002330000000     0.561890000000    -0.304621   
O79      O      0.504410000000     0.492470000000     0.990210000000    -0.367285   
O80      O      0.433900000000     0.514180000000     0.970240000000    -0.306509   
O81      O      0.484000000000     0.420190000000     0.002460000000    -0.30585    
O82      O      0.526070000000     0.477740000000     0.918230000000    -0.307621   
O83      O      0.431270000000     0.473750000000     0.002390000000    -0.305597   
O84      O      0.489630000000     0.514410000000     0.918230000000    -0.306039   
O85      O      0.523240000000     0.420970000000     0.968720000000    -0.303358   
O86      O      0.574970000000     0.508400000000     0.013880000000    -0.305742   
O87      O      0.481880000000     0.469820000000     0.060100000000    -0.305249   
O88      O      0.577180000000     0.476040000000     0.973520000000    -0.305494   
O89      O      0.518500000000     0.506160000000     0.064240000000    -0.307718   
O90      O      0.522880000000     0.563710000000     0.013180000000    -0.302886   
O91      O      0.489610000000     0.565310000000     0.973610000000    -0.306998   
O92      O      0.491510000000     0.486090000000     0.490130000000    -0.366894   
O93      O      0.503530000000     0.413830000000     0.510500000000    -0.306778   
O94      O      0.418200000000     0.470420000000     0.476620000000    -0.305432   
O95      O      0.475690000000     0.503860000000     0.562930000000    -0.305693   
O96      O      0.469840000000     0.415170000000     0.471230000000    -0.308031   
O97      O      0.512570000000     0.467670000000     0.561890000000    -0.305003   
O98      O      0.421360000000     0.509200000000     0.510740000000    -0.303786   
O99      O      0.514910000000     0.556410000000     0.472550000000    -0.308402   
O100     O      0.467300000000     0.470810000000     0.418600000000    -0.304566   
O101     O      0.480820000000     0.558700000000     0.511470000000    -0.306317   
O102     O      0.505380000000     0.505750000000     0.417260000000    -0.30493    
O103     O      0.563360000000     0.497450000000     0.466520000000    -0.30462    
O104     O      0.562770000000     0.461650000000     0.503910000000    -0.304142   
Zn1      Zn     0.018930000000     0.976860000000     0.027760000000     0.447434   
Zn2      Zn     0.020360000000     0.026560000000     0.971870000000     0.446769   
Zn3      Zn     0.967970000000     0.973660000000     0.973820000000     0.449743   
Zn4      Zn     0.965980000000     0.029450000000     0.023310000000     0.448012   
Zn5      Zn     0.962990000000     0.019400000000     0.474650000000     0.449506   
Zn6      Zn     0.012580000000     0.964470000000     0.470540000000     0.447081   
Zn7      Zn     0.018440000000     0.016130000000     0.524780000000     0.447641   
Zn8      Zn     0.963440000000     0.966140000000     0.527040000000     0.448765   
Zn9      Zn     0.031890000000     0.528810000000     0.022670000000     0.447871   
Zn10     Zn     0.978220000000     0.527750000000     0.970380000000     0.447809   
Zn11     Zn     0.030100000000     0.474240000000     0.972250000000     0.451155   
Zn12     Zn     0.977800000000     0.477300000000     0.024900000000     0.450181   
Zn13     Zn     0.964910000000     0.466300000000     0.524240000000     0.44924    
Zn14     Zn     0.018340000000     0.466570000000     0.471780000000     0.450488   
Zn15     Zn     0.964170000000     0.517360000000     0.470060000000     0.448346   
Zn16     Zn     0.016600000000     0.519630000000     0.523600000000     0.448283   
Zn17     Zn     0.466690000000     0.965100000000     0.966810000000     0.447665   
Zn18     Zn     0.470180000000     0.019430000000     0.018630000000     0.448261   
Zn19     Zn     0.521920000000     0.965440000000     0.016030000000     0.45037    
Zn20     Zn     0.518820000000     0.017870000000     0.962870000000     0.450463   
Zn21     Zn     0.462460000000     0.011400000000     0.516070000000     0.450393   
Zn22     Zn     0.465710000000     0.958770000000     0.462200000000     0.447314   
Zn23     Zn     0.516600000000     0.013100000000     0.465450000000     0.451141   
Zn24     Zn     0.515500000000     0.959540000000     0.517850000000     0.448468   
Zn25     Zn     0.480000000000     0.520630000000     0.963950000000     0.45178    
Zn26     Zn     0.476220000000     0.465060000000     0.013370000000     0.449993   
Zn27     Zn     0.531950000000     0.467250000000     0.963690000000     0.448358   
Zn28     Zn     0.529130000000     0.517110000000     0.019730000000     0.448189   
Zn29     Zn     0.517150000000     0.458450000000     0.515900000000     0.449394   
Zn30     Zn     0.462890000000     0.461250000000     0.464600000000     0.448642   
Zn31     Zn     0.467880000000     0.513870000000     0.517670000000     0.449545   
Zn32     Zn     0.518120000000     0.510640000000     0.462370000000     0.448664   


