data_structure

_audit_creation_method RASPA-1.0
_audit_creation_date 2023-5-25
_audit_author_name 'Poobodin Mano'

_cell_length_a    42.738
_cell_length_b    42.8223
_cell_length_c    42.6547
_cell_angle_alpha 90
_cell_angle_beta  90
_cell_angle_gamma 90
_cell_volume      78064

_symmetry_cell_setting          triclinic
_symmetry_space_group_name_Hall 'P 1'
_symmetry_space_group_name_H-M  'P 1'
_symmetry_Int_Tables_number     1

_symmetry_equiv_pos_as_xyz 'x,y,z'

loop_
_atom_site_label
_atom_site_type_symbol
_atom_site_fract_x
_atom_site_fract_y
_atom_site_fract_z
_atom_site_charge
C1       C      0.980160000000     0.989710000000     0.078750000000     0.361189   
C2       C      0.071090000000     0.981790000000     0.996530000000     0.358965   
C3       C      0.985000000000     0.896650000000     0.993600000000     0.362801   
C4       C      0.984110000000     0.981000000000     0.905480000000     0.360735   
C5       C      0.987330000000     0.070610000000     0.986310000000     0.360567   
C6       C      0.897440000000     0.982260000000     0.991940000000     0.359494   
C7       C      0.008200000000     0.997050000000     0.404450000000     0.362389   
C8       C      0.089570000000     0.991470000000     0.493370000000     0.360987   
C9       C      0.998180000000     0.077180000000     0.497980000000     0.361777   
C10      C      0.999720000000     0.986650000000     0.577030000000     0.361761   
C11      C      0.005620000000     0.904120000000     0.488800000000     0.363851   
C12      C      0.916320000000     0.986500000000     0.482980000000     0.360541   
C13      C      0.902740000000     0.488980000000     0.999620000000     0.362801   
C14      C      0.983740000000     0.480620000000     0.088370000000     0.363773   
C15      C      0.986950000000     0.396870000000     0.001080000000     0.363117   
C16      C      0.075880000000     0.482570000000     0.005800000000     0.363752   
C17      C      0.995890000000     0.570310000000     0.003170000000     0.360675   
C18      C      0.990510000000     0.482230000000     0.914280000000     0.35908    
C19      C      0.994290000000     0.404120000000     0.497410000000     0.364515   
C20      C      0.006260000000     0.494680000000     0.413870000000     0.360322   
C21      C      0.912430000000     0.493290000000     0.492530000000     0.363854   
C22      C      0.005230000000     0.577510000000     0.499560000000     0.365662   
C23      C      0.085210000000     0.483460000000     0.508650000000     0.365317   
C24      C      0.990350000000     0.493060000000     0.586290000000     0.36036    
C25      C      0.396510000000     0.007330000000     0.984860000000     0.363319   
C26      C      0.476300000000     0.997540000000     0.076690000000     0.360782   
C27      C      0.476260000000     0.913420000000     0.989990000000     0.362503   
C28      C      0.570400000000     0.996760000000     0.000160000000     0.360342   
C29      C      0.488560000000     0.086420000000     0.989090000000     0.360017   
C30      C      0.492020000000     0.996150000000     0.904490000000     0.359835   
C31      C      0.416760000000     0.995920000000     0.485750000000     0.3629     
C32      C      0.506160000000     0.993790000000     0.402320000000     0.364518   
C33      C      0.499010000000     0.083280000000     0.488270000000     0.364234   
C34      C      0.590240000000     0.001010000000     0.489520000000     0.363942   
C35      C      0.505750000000     0.909870000000     0.491650000000     0.362516   
C36      C      0.503860000000     0.998340000000     0.576280000000     0.362213   
C37      C      0.479980000000     0.586950000000     0.997930000000     0.359893   
C38      C      0.575610000000     0.502380000000     0.989870000000     0.362094   
C39      C      0.499130000000     0.502420000000     0.082430000000     0.360925   
C40      C      0.491760000000     0.414330000000     0.991330000000     0.362876   
C41      C      0.484260000000     0.507930000000     0.910420000000     0.363178   
C42      C      0.402890000000     0.491540000000     0.004930000000     0.362233   
C43      C      0.411880000000     0.490940000000     0.495690000000     0.361776   
C44      C      0.503350000000     0.409290000000     0.499300000000     0.36363    
C45      C      0.496890000000     0.495840000000     0.410080000000     0.359296   
C46      C      0.584890000000     0.498920000000     0.495450000000     0.365058   
C47      C      0.499520000000     0.495660000000     0.583780000000     0.361199   
C48      C      0.494100000000     0.583340000000     0.499730000000     0.360718   
C49      C      0.468700000000     0.486080000000     0.827850000000    -0.0300885  
C50      C      0.514810000000     0.521260000000     0.665740000000    -0.028665   
C51      C      0.482360000000     0.470930000000     0.633080000000    -0.0102807  
C52      C      0.525430000000     0.512020000000     0.632790000000    -0.0101763  
C53      C      0.513720000000     0.482340000000     0.736870000000    -0.0536826  
C54      C      0.470090000000     0.526480000000     0.757470000000    -0.0533443  
C55      C      0.496680000000     0.499640000000     0.714860000000     0.0619673  
C56      C      0.473830000000     0.482140000000     0.666000000000    -0.0285839  
C57      C      0.487000000000     0.509040000000     0.779480000000     0.0613833  
C58      C      0.508750000000     0.526260000000     0.828950000000    -0.0432256  
C59      C      0.509030000000     0.486950000000     0.768940000000    -0.0557894  
C60      C      0.499830000000     0.536190000000     0.862340000000     0.0385352  
C61      C      0.457610000000     0.494200000000     0.860920000000    -0.0085457  
C62      C      0.474840000000     0.521920000000     0.725390000000    -0.0562324  
C63      C      0.520060000000     0.478880000000     0.163580000000    -0.0294051  
C64      C      0.482000000000     0.520030000000     0.327230000000    -0.0286501  
C65      C      0.513060000000     0.469720000000     0.361230000000    -0.0103616  
C66      C      0.471700000000     0.512620000000     0.360800000000    -0.0103872  
C67      C      0.480040000000     0.477980000000     0.257750000000    -0.0534099  
C68      C      0.524270000000     0.520010000000     0.234240000000    -0.0530934  
C69      C      0.498130000000     0.495630000000     0.278630000000     0.0617577  
C70      C      0.521380000000     0.479410000000     0.327760000000    -0.0285549  
C71      C      0.506100000000     0.502430000000     0.213360000000     0.0618282  
C72      C      0.481850000000     0.520730000000     0.165610000000    -0.0415921  
C73      C      0.483880000000     0.481300000000     0.225380000000    -0.0559988  
C74      C      0.488840000000     0.530700000000     0.131820000000     0.039259   
C75      C      0.528890000000     0.486700000000     0.129660000000    -0.00847957 
C76      C      0.520410000000     0.516710000000     0.266620000000    -0.0559713  
C77      C      0.480840000000     0.827440000000     0.478120000000    -0.0299282  
C78      C      0.517280000000     0.665010000000     0.517880000000    -0.0286251  
C79      C      0.467450000000     0.632300000000     0.484610000000    -0.010199   
C80      C      0.508760000000     0.631700000000     0.527500000000    -0.010295   
C81      C      0.477730000000     0.735210000000     0.519910000000    -0.0536323  
C82      C      0.521330000000     0.757750000000     0.476580000000    -0.0532271  
C83      C      0.494730000000     0.714070000000     0.501510000000     0.0617473  
C84      C      0.477740000000     0.665750000000     0.477140000000    -0.0288979  
C85      C      0.504220000000     0.778890000000     0.494860000000     0.0614261  
C86      C      0.520900000000     0.827890000000     0.518220000000    -0.0430123  
C87      C      0.482360000000     0.767380000000     0.516690000000    -0.0558666  
C88      C      0.531160000000     0.861270000000     0.509830000000     0.038222   
C89      C      0.488960000000     0.860470000000     0.467350000000    -0.0089075  
C90      C      0.516730000000     0.725600000000     0.479820000000    -0.0561019  
C91      C      0.520690000000     0.165970000000     0.472550000000    -0.0300991  
C92      C      0.482500000000     0.327030000000     0.517270000000    -0.0286314  
C93      C      0.530490000000     0.361140000000     0.482760000000    -0.0101834  
C94      C      0.490730000000     0.360360000000     0.527110000000    -0.0102337  
C95      C      0.523910000000     0.257650000000     0.515850000000    -0.0536574  
C96      C      0.478770000000     0.235080000000     0.474150000000    -0.0533124  
C97      C      0.505380000000     0.278760000000     0.499010000000     0.0620086  
C98      C      0.520460000000     0.327740000000     0.475010000000    -0.0286239  
C99      C      0.497360000000     0.213980000000     0.490930000000     0.0614996  
C100     C      0.482400000000     0.164690000000     0.514430000000    -0.0430565  
C101     C      0.520020000000     0.225490000000     0.511930000000    -0.0557804  
C102     C      0.472450000000     0.131220000000     0.506360000000     0.0384929  
C103     C      0.512670000000     0.132780000000     0.462110000000    -0.0085276  
C104     C      0.482650000000     0.267230000000     0.478090000000    -0.0561678  
C105     C      0.495670000000     0.828810000000     0.998670000000    -0.0313548  
C106     C      0.446450000000     0.666400000000     0.013560000000    -0.028628   
C107     C      0.497910000000     0.638000000000     0.978760000000    -0.00969865 
C108     C      0.444460000000     0.631740000000     0.004900000000    -0.00995329 
C109     C      0.464410000000     0.734510000000     0.964710000000    -0.0533987  
C110     C      0.462830000000     0.765410000000     0.022310000000    -0.0528467  
C111     C      0.463720000000     0.716970000000     0.992460000000     0.0612957  
C112     C      0.497560000000     0.671890000000     0.989900000000    -0.0292034  
C113     C      0.463120000000     0.782940000000     0.994550000000     0.0608137  
C114     C      0.445680000000     0.833110000000     0.972540000000    -0.0429062  
C115     C      0.464740000000     0.767130000000     0.965620000000    -0.0552737  
C116     C      0.442240000000     0.867740000000     0.981210000000     0.0374436  
C117     C      0.494740000000     0.862750000000     0.009740000000    -0.00721518 
C118     C      0.463750000000     0.732800000000     0.021420000000    -0.0553448  
C119     C      0.467320000000     0.331530000000     0.979890000000    -0.0310353  
C120     C      0.515240000000     0.167350000000     0.968690000000    -0.0287775  
C121     C      0.467370000000     0.136840000000     0.006700000000    -0.00873615 
C122     C      0.520100000000     0.133330000000     0.978530000000    -0.0104428  
C123     C      0.493770000000     0.235550000000     0.016520000000    -0.0528341  
C124     C      0.497270000000     0.265320000000     0.958400000000    -0.0533062  
C125     C      0.495760000000     0.217450000000     0.989200000000     0.0610605  
C126     C      0.464880000000     0.170250000000     0.994310000000    -0.0298109  
C127     C      0.496450000000     0.283370000000     0.985810000000     0.0607782  
C128     C      0.516660000000     0.332370000000     0.007770000000    -0.0422298  
C129     C      0.493430000000     0.268130000000     0.014930000000    -0.0549483  
C130     C      0.522870000000     0.366520000000     0.999060000000     0.0371614  
C131     C      0.471170000000     0.365390000000     0.968950000000    -0.00790721 
C132     C      0.496290000000     0.232720000000     0.959910000000    -0.0553717  
C133     C      0.528520000000     0.980830000000     0.658320000000    -0.0300847  
C134     C      0.471920000000     0.988810000000     0.820090000000    -0.0295749  
C135     C      0.527000000000     0.000590000000     0.858740000000    -0.0096953  
C136     C      0.472750000000     0.976490000000     0.853740000000    -0.00945959 
C137     C      0.503580000000     0.966690000000     0.754550000000    -0.0534762  
C138     C      0.505260000000     0.025780000000     0.726910000000    -0.0525612  
C139     C      0.504040000000     0.993280000000     0.773690000000     0.0612809  
C140     C      0.523860000000     0.011060000000     0.824630000000    -0.0285079  
C141     C      0.505990000000     0.999160000000     0.707810000000     0.0605304  
C142     C      0.477080000000     0.004560000000     0.659260000000    -0.0427248  
C143     C      0.503920000000     0.969480000000     0.721920000000    -0.0553005  
C144     C      0.480530000000     0.017110000000     0.625720000000     0.0388747  
C145     C      0.534550000000     0.991420000000     0.624650000000    -0.0100298  
C146     C      0.503680000000     0.023010000000     0.759500000000    -0.0552863  
C147     C      0.506920000000     0.021030000000     0.320140000000    -0.0301421  
C148     C      0.491560000000     0.969640000000     0.156870000000    -0.0286926  
C149     C      0.459360000000     0.021550000000     0.126590000000    -0.00919848 
C150     C      0.477100000000     0.965120000000     0.124500000000    -0.0102933  
C151     C      0.458410000000     0.996450000000     0.229600000000    -0.0535474  
C152     C      0.520720000000     0.993860000000     0.249260000000    -0.0534228  
C153     C      0.482310000000     0.995020000000     0.207180000000     0.0617922  
C154     C      0.474910000000     0.023940000000     0.158880000000    -0.0287856  
C155     C      0.496750000000     0.993570000000     0.271650000000     0.0613542  
C156     C      0.485260000000     0.968630000000     0.321890000000    -0.0431608  
C157     C      0.465460000000     0.996340000000     0.261580000000    -0.0555606  
C158     C      0.499320000000     0.962320000000     0.354310000000     0.0382234  
C159     C      0.522830000000     0.016990000000     0.352050000000    -0.00756309 
C160     C      0.513700000000     0.995180000000     0.217300000000    -0.055912   
C161     C      0.667490000000     0.527000000000     0.499980000000    -0.0304569  
C162     C      0.829670000000     0.471290000000     0.506130000000    -0.0286246  
C163     C      0.864920000000     0.518230000000     0.471380000000    -0.00929767 
C164     C      0.862990000000     0.463970000000     0.495650000000    -0.0101413  
C165     C      0.762760000000     0.498470000000     0.461390000000    -0.0536664  
C166     C      0.735080000000     0.498620000000     0.520720000000    -0.0532326  
C167     C      0.781720000000     0.496760000000     0.488130000000     0.0621008  
C168     C      0.831600000000     0.523290000000     0.483540000000    -0.0290854  
C169     C      0.716070000000     0.498450000000     0.493970000000     0.0615131  
C170     C      0.666740000000     0.476210000000     0.475080000000    -0.0429271  
C171     C      0.730240000000     0.499950000000     0.464170000000    -0.0553152  
C172     C      0.633310000000     0.469480000000     0.485900000000     0.0380887  
C173     C      0.634270000000     0.522970000000     0.512800000000    -0.00778987 
C174     C      0.767630000000     0.498460000000     0.517950000000    -0.0558268  
C175     C      0.167570000000     0.507160000000     0.518030000000    -0.0305035  
C176     C      0.332470000000     0.461420000000     0.514620000000    -0.0286212  
C177     C      0.360950000000     0.511200000000     0.477660000000    -0.00948686 
C178     C      0.365680000000     0.457220000000     0.502170000000    -0.0104115  
C179     C      0.260840000000     0.483430000000     0.473520000000    -0.0534604  
C180     C      0.236180000000     0.479400000000     0.534020000000    -0.0533877  
C181     C      0.281220000000     0.482000000000     0.499210000000     0.0617975  
C182     C      0.328050000000     0.513110000000     0.491780000000    -0.0289927  
C183     C      0.215850000000     0.479420000000     0.508250000000     0.0613799  
C184     C      0.165810000000     0.457360000000     0.490830000000    -0.0431147  
C185     C      0.228460000000     0.482830000000     0.477910000000    -0.0552926  
C186     C      0.132410000000     0.450790000000     0.502100000000     0.0381971  
C187     C      0.134700000000     0.502530000000     0.531480000000    -0.00765088 
C188     C      0.268520000000     0.481350000000     0.529710000000    -0.0556443  
C189     C      0.820130000000     0.470930000000     0.977800000000    -0.0297499  
C190     C      0.657970000000     0.529150000000     0.983730000000    -0.0296474  
C191     C      0.623570000000     0.470590000000     0.989590000000    -0.0116817  
C192     C      0.624410000000     0.527040000000     0.971190000000    -0.00939732 
C193     C      0.726360000000     0.500380000000     0.960440000000    -0.0535285  
C194     C      0.751880000000     0.497980000000     0.020690000000    -0.0527068  
C195     C      0.706400000000     0.499850000000     0.986480000000     0.0614795  
C196     C      0.657080000000     0.475110000000     0.000950000000    -0.0271053  
C197     C      0.771770000000     0.496630000000     0.994620000000     0.0609817  
C198     C      0.821970000000     0.522070000000     0.001970000000    -0.0425576  
C199     C      0.758810000000     0.499390000000     0.964370000000    -0.0553795  
C200     C      0.854500000000     0.516070000000     0.016010000000     0.039183   
C201     C      0.852680000000     0.462320000000     0.989790000000    -0.00961703 
C202     C      0.719510000000     0.500170000000     0.016790000000    -0.0554709  
C203     C      0.160170000000     0.489900000000     0.984060000000    -0.0306228  
C204     C      0.322640000000     0.500360000000     0.037370000000    -0.0287531  
C205     C      0.353510000000     0.469640000000     0.984770000000    -0.00981185 
C206     C      0.357110000000     0.491200000000     0.040220000000    -0.010442   
C207     C      0.254540000000     0.454710000000     0.014500000000    -0.0535373  
C208     C      0.225010000000     0.512860000000     0.016410000000    -0.0532352  
C209     C      0.272750000000     0.481890000000     0.016020000000     0.0619047  
C210     C      0.319470000000     0.480580000000     0.984180000000    -0.0291526  
C211     C      0.206800000000     0.485650000000     0.015760000000     0.0615028  
C212     C      0.156670000000     0.465390000000     0.035030000000    -0.0428539  
C213     C      0.221900000000     0.456470000000     0.013780000000    -0.0554642  
C214     C      0.122320000000     0.474850000000     0.039140000000     0.0378614  
C215     C      0.126350000000     0.501490000000     0.985540000000    -0.00827041 
C216     C      0.257650000000     0.511150000000     0.015930000000    -0.0558426  
C217     C      0.009610000000     0.508110000000     0.669940000000    -0.0299821  
C218     C      0.965400000000     0.467680000000     0.831650000000    -0.0287201  
C219     C      0.017090000000     0.497120000000     0.865180000000    -0.0103594  
C220     C      0.972710000000     0.457350000000     0.865230000000    -0.0105216  
C221     C      0.007510000000     0.464340000000     0.761870000000    -0.0533629  
C222     C      0.966370000000     0.509400000000     0.738370000000    -0.0532796  
C223     C      0.990080000000     0.482620000000     0.782760000000     0.0614532  
C224     C      0.007490000000     0.505510000000     0.831670000000    -0.0282424  
C225     C      0.983900000000     0.491190000000     0.717480000000     0.0610018  
C226     C      0.968650000000     0.469040000000     0.667410000000    -0.043126   
C227     C      0.004540000000     0.468520000000     0.729490000000    -0.0555762  
C228     C      0.960380000000     0.477720000000     0.633460000000     0.0381236  
C229     C      0.003290000000     0.519000000000     0.636370000000    -0.0084556  
C230     C      0.969380000000     0.505250000000     0.770760000000    -0.056165   
C231     C      0.970860000000     0.506200000000     0.170290000000    -0.0303008  
C232     C      0.020130000000     0.469670000000     0.332020000000    -0.0288346  
C233     C      0.993920000000     0.523210000000     0.365030000000    -0.010923   
C234     C      0.032310000000     0.478120000000     0.364730000000    -0.0102793  
C235     C      0.019300000000     0.508070000000     0.260170000000    -0.0537696  
C236     C      0.971220000000     0.467540000000     0.242200000000    -0.0529678  
C237     C      0.002080000000     0.492320000000     0.283200000000     0.0623138  
C238     C      0.983160000000     0.512780000000     0.332520000000    -0.0286023  
C239     C      0.988410000000     0.483330000000     0.219170000000     0.0610318  
C240     C      0.007160000000     0.462570000000     0.169950000000    -0.0427448  
C241     C      0.012640000000     0.503650000000     0.228400000000    -0.0552652  
C242     C      0.996620000000     0.452290000000     0.137180000000     0.0380663  
C243     C      0.958490000000     0.497950000000     0.137620000000    -0.00856402 
C244     C      0.977900000000     0.471940000000     0.273980000000    -0.0565122  
C245     C      0.034030000000     0.658260000000     0.516760000000    -0.0301737  
C246     C      0.983890000000     0.820040000000     0.497300000000    -0.0291525  
C247     C      0.038420000000     0.857720000000     0.480980000000    -0.010329   
C248     C      0.985040000000     0.854090000000     0.507970000000    -0.00933889 
C249     C      0.015230000000     0.756680000000     0.522920000000    -0.0535233  
C250     C      0.016540000000     0.724950000000     0.465760000000    -0.0533807  
C251     C      0.016020000000     0.773760000000     0.494900000000     0.0619706  
C252     C      0.034720000000     0.823230000000     0.472670000000    -0.0285012  
C253     C      0.016460000000     0.707880000000     0.493780000000     0.0616493  
C254     C      0.984600000000     0.661470000000     0.489300000000    -0.0436347  
C255     C      0.014790000000     0.724070000000     0.522490000000    -0.0555383  
C256     C      0.986510000000     0.627510000000     0.478240000000     0.0395034  
C257     C      0.038250000000     0.623780000000     0.508390000000    -0.00871374 
C258     C      0.015660000000     0.757530000000     0.466160000000    -0.0557066  
C259     C      0.969170000000     0.323160000000     0.517190000000    -0.0300883  
C260     C      0.020760000000     0.160210000000     0.507590000000    -0.02901    
C261     C      0.964470000000     0.123760000000     0.495070000000    -0.0104067  
C262     C      0.018640000000     0.126560000000     0.519570000000    -0.00929142 
C263     C      0.991400000000     0.226490000000     0.529740000000    -0.0535055  
C264     C      0.989420000000     0.254290000000     0.470560000000    -0.0532207  
C265     C      0.990220000000     0.207550000000     0.502970000000     0.0617685  
C266     C      0.968830000000     0.157610000000     0.484750000000    -0.0287358  
C267     C      0.989320000000     0.273220000000     0.497350000000     0.0613685  
C268     C      0.018610000000     0.321040000000     0.489480000000    -0.0433045  
C269     C      0.991610000000     0.259010000000     0.527070000000    -0.0553823  
C270     C      0.014750000000     0.354350000000     0.476780000000     0.0393789  
C271     C      0.962950000000     0.356710000000     0.506700000000    -0.00880727 
C272     C      0.990530000000     0.221800000000     0.473190000000    -0.0557368  
C273     C      0.671940000000     0.016660000000     0.463450000000    -0.0294951  
C274     C      0.833390000000     0.971090000000     0.502780000000    -0.028887   
C275     C      0.869100000000     0.000880000000     0.452820000000    -0.00942011 
C276     C      0.866590000000     0.959800000000     0.495600000000    -0.0102946  
C277     C      0.764120000000     0.972590000000     0.460590000000    -0.053681   
C278     C      0.742920000000     0.017160000000     0.503550000000    -0.0526864  
C279     C      0.785840000000     0.989580000000     0.478290000000     0.0613804  
C280     C      0.835850000000     0.010490000000     0.461900000000    -0.0285844  
C281     C      0.721200000000     0.999990000000     0.486010000000     0.0605774  
C282     C      0.672740000000     0.977290000000     0.504270000000    -0.043376   
C283     C      0.732040000000     0.977680000000     0.464330000000    -0.0556391  
C284     C      0.639620000000     0.985630000000     0.515190000000     0.0378534  
C285     C      0.638800000000     0.027110000000     0.472190000000    -0.00876564 
C286     C      0.775000000000     0.012100000000     0.499770000000    -0.0557649  
C287     C      0.334310000000     0.011960000000     0.508630000000    -0.0293805  
C288     C      0.171790000000     0.976120000000     0.468800000000    -0.0285309  
C289     C      0.138490000000     0.006820000000     0.519970000000    -0.00945527 
C290     C      0.138360000000     0.966100000000     0.476340000000    -0.0103308  
C291     C      0.241270000000     0.971540000000     0.509740000000    -0.053643   
C292     C      0.265060000000     0.015770000000     0.467810000000    -0.0525668  
C293     C      0.220620000000     0.990750000000     0.493070000000     0.0615468  
C294     C      0.172120000000     0.014620000000     0.510370000000    -0.0284403  
C295     C      0.285710000000     0.996540000000     0.484470000000     0.0605823  
C296     C      0.334440000000     0.972500000000     0.467930000000    -0.0434436  
C297     C      0.273570000000     0.974370000000     0.505590000000    -0.0555158  
C298     C      0.368260000000     0.980140000000     0.458410000000     0.0379793  
C299     C      0.367740000000     0.022000000000     0.501070000000    -0.00856631 
C300     C      0.232760000000     0.012980000000     0.472000000000    -0.0557652  
C301     C      0.972200000000     0.814140000000     0.019070000000    -0.0300159  
C302     C      0.013110000000     0.651770000000     0.978240000000    -0.0289633  
C303     C      0.983980000000     0.619480000000     0.030870000000    -0.0106022  
C304     C      0.023140000000     0.618320000000     0.986060000000    -0.0104088  
C305     C      0.016170000000     0.722260000000     0.019190000000    -0.0536993  
C306     C      0.970680000000     0.744420000000     0.977670000000    -0.052818   
C307     C      0.998110000000     0.700950000000     0.002060000000     0.0620613  
C308     C      0.975550000000     0.652690000000     0.020860000000    -0.0285899  
C309     C      0.988700000000     0.765720000000     0.994840000000     0.0604225  
C310     C      0.010820000000     0.814860000000     0.977570000000    -0.0429558  
C311     C      0.011590000000     0.754390000000     0.015690000000    -0.0548147  
C312     C      0.001850000000     0.848050000000     0.967540000000     0.038674   
C313     C      0.961120000000     0.847280000000     0.011430000000    -0.00803624 
C314     C      0.975220000000     0.712290000000     0.981200000000    -0.0567972  
C315     C      0.010760000000     0.313620000000     0.012110000000    -0.0295506  
C316     C      0.964450000000     0.152890000000     0.970530000000    -0.0288655  
C317     C      0.016880000000     0.118800000000     0.997740000000    -0.0113043  
C318     C      0.971010000000     0.119360000000     0.959860000000    -0.0103681  
C319     C      0.007080000000     0.222280000000     0.967070000000    -0.0534241  
C320     C      0.967690000000     0.244940000000     0.014210000000    -0.0527938  
C321     C      0.990000000000     0.201200000000     0.985450000000     0.0610432  
C322     C      0.008090000000     0.152160000000     0.006880000000    -0.0273351  
C323     C      0.984810000000     0.266010000000     0.995870000000     0.0604626  
C324     C      0.968090000000     0.315810000000     0.974850000000    -0.0431643  
C325     C      0.004580000000     0.254440000000     0.972150000000    -0.0555233  
C326     C      0.959210000000     0.349120000000     0.984560000000     0.0377672  
C327     C      0.004340000000     0.346800000000     0.023830000000    -0.00851319 
C328     C      0.970220000000     0.212790000000     0.009170000000    -0.0556594  
C329     C      0.814410000000     0.006370000000     0.979110000000    -0.0292289  
C330     C      0.650620000000     0.968810000000     0.019730000000    -0.0289456  
C331     C      0.621060000000     0.022330000000     0.989590000000    -0.0110472  
C332     C      0.617110000000     0.977920000000     0.028870000000    -0.0104489  
C333     C      0.722790000000     0.007560000000     0.023750000000    -0.0534813  
C334     C      0.744570000000     0.965320000000     0.978780000000    -0.0527299  
C335     C      0.701220000000     0.990660000000     0.005730000000     0.0617297  
C336     C      0.654100000000     0.011000000000     0.981970000000    -0.027807   
C337     C      0.766130000000     0.982410000000     0.996620000000     0.0598681  
C338     C      0.815770000000     0.965680000000     0.018490000000    -0.0428742  
C339     C      0.754980000000     0.003540000000     0.019320000000    -0.054492   
C340     C      0.849080000000     0.955820000000     0.009310000000     0.038622   
C341     C      0.847560000000     0.998750000000     0.967780000000    -0.0101226  
C342     C      0.712390000000     0.969370000000     0.983170000000    -0.0568383  
C343     C      0.314650000000     0.020390000000     0.010390000000    -0.0301748  
C344     C      0.153790000000     0.970540000000     0.972570000000    -0.0291364  
C345     C      0.119090000000     0.996730000000     0.025210000000    -0.0114297  
C346     C      0.121250000000     0.957740000000     0.980470000000    -0.0104687  
C347     C      0.224620000000     0.972340000000     0.012220000000    -0.0525024  
C348     C      0.242890000000     0.020090000000     0.971420000000    -0.0537727  
C349     C      0.201730000000     0.989460000000     0.996170000000     0.0600338  
C350     C      0.151630000000     0.007890000000     0.015310000000    -0.0272566  
C351     C      0.265780000000     0.002940000000     0.987440000000     0.0616612  
C352     C      0.314960000000     0.983910000000     0.966830000000    -0.0433387  
C353     C      0.256390000000     0.978920000000     0.007940000000    -0.0562899  
C354     C      0.347750000000     0.994260000000     0.956490000000     0.0376345  
C355     C      0.347300000000     0.032620000000     0.002080000000    -0.00786496 
C356     C      0.211120000000     0.013500000000     0.975690000000    -0.0550065  
C357     C      0.976370000000     0.960290000000     0.657090000000    -0.0299246  
C358     C      0.977770000000     0.006100000000     0.822310000000    -0.0292201  
C359     C      0.994220000000     0.950210000000     0.857800000000    -0.0110978  
C360     C      0.964440000000     0.001690000000     0.855320000000    -0.00848029 
C361     C      0.960750000000     0.978490000000     0.754350000000    -0.0534279  
C362     C      0.020590000000     0.979840000000     0.728130000000    -0.0530778  
C363     C      0.986940000000     0.977730000000     0.774110000000     0.0614148  
C364     C      0.005450000000     0.956770000000     0.824450000000    -0.0281518  
C365     C      0.994410000000     0.979310000000     0.708340000000     0.0610307  
C366     C      0.003370000000     0.009820000000     0.661260000000    -0.0426957  
C367     C      0.964300000000     0.979940000000     0.721830000000    -0.0553219  
C368     C      0.017330000000     0.006840000000     0.628230000000     0.0398464  
C369     C      0.988050000000     0.954900000000     0.623680000000    -0.00936186 
C370     C      0.017020000000     0.979740000000     0.760680000000    -0.055342   
C371     C      0.988640000000     0.024090000000     0.324610000000    -0.0305326  
C372     C      0.977920000000     0.967610000000     0.162350000000    -0.029493   
C373     C      0.983720000000     0.024270000000     0.124880000000    -0.00991879 
C374     C      0.962550000000     0.969170000000     0.129930000000    -0.00942947 
C375     C      0.962500000000     0.998080000000     0.231300000000    -0.0530076  
C376     C      0.024610000000     0.999180000000     0.251670000000    -0.054466   
C377     C      0.986690000000     0.998340000000     0.209140000000     0.0610541  
C378     C      0.997820000000     0.020570000000     0.157530000000    -0.0286325  
C379     C      0.000410000000     0.000340000000     0.273790000000     0.0630026  
C380     C      0.010440000000     0.971770000000     0.321690000000    -0.0435776  
C381     C      0.969180000000     0.998450000000     0.263350000000    -0.0568469  
C382     C      0.025970000000     0.974970000000     0.354000000000     0.0392736  
C383     C      0.002830000000     0.029710000000     0.356990000000    -0.00787887 
C384     C      0.017940000000     0.997580000000     0.219650000000    -0.0550694  
H1       H      0.461420000000     0.535620000000     0.708840000000     0.0416964  
H2       H      0.448410000000     0.476730000000     0.814440000000     0.0356302  
H3       H      0.518700000000     0.546660000000     0.816170000000     0.0411612  
H4       H      0.496520000000     0.449230000000     0.635120000000     0.0413841  
H5       H      0.436340000000     0.509050000000     0.859130000000     0.0401329  
H6       H      0.535430000000     0.530490000000     0.678740000000     0.0356034  
H7       H      0.463750000000     0.462090000000     0.679210000000     0.0355454  
H8       H      0.532390000000     0.533570000000     0.620010000000     0.0451005  
H9       H      0.521960000000     0.541530000000     0.874980000000     0.0376317  
H10      H      0.453120000000     0.543580000000     0.765270000000     0.0448523  
H11      H      0.450700000000     0.472190000000     0.872890000000     0.0450906  
H12      H      0.530620000000     0.465170000000     0.729080000000     0.0456996  
H13      H      0.486810000000     0.467420000000     0.829300000000     0.0388959  
H14      H      0.460390000000     0.464830000000     0.620530000000     0.0453252  
H15      H      0.497090000000     0.540260000000     0.664030000000     0.0384597  
H16      H      0.455590000000     0.500640000000     0.664260000000     0.038444   
H17      H      0.522430000000     0.473220000000     0.785470000000     0.0417568  
H18      H      0.527400000000     0.508130000000     0.830320000000     0.041534   
H19      H      0.546530000000     0.496960000000     0.634780000000     0.0415293  
H20      H      0.451740000000     0.567820000000     0.842520000000     0.0381     
H21      H      0.534690000000     0.530620000000     0.282240000000     0.0418483  
H22      H      0.540920000000     0.468650000000     0.175370000000     0.0360524  
H23      H      0.473630000000     0.541370000000     0.179220000000     0.0416229  
H24      H      0.498280000000     0.448370000000     0.360250000000     0.0416842  
H25      H      0.550950000000     0.500450000000     0.129790000000     0.0427131  
H26      H      0.461510000000     0.529590000000     0.314270000000     0.0357076  
H27      H      0.530510000000     0.458550000000     0.315150000000     0.0356683  
H28      H      0.466260000000     0.534960000000     0.372930000000     0.0448652  
H29      H      0.466160000000     0.537550000000     0.121050000000     0.0356676  
H30      H      0.541330000000     0.536470000000     0.225330000000     0.0466699  
H31      H      0.533640000000     0.464510000000     0.117000000000     0.044752   
H32      H      0.462830000000     0.461670000000     0.266650000000     0.0456764  
H33      H      0.501160000000     0.460970000000     0.163510000000     0.0384518  
H34      H      0.535070000000     0.463430000000     0.373630000000     0.0454364  
H35      H      0.500500000000     0.538350000000     0.327790000000     0.0383176  
H36      H      0.540280000000     0.497310000000     0.328470000000     0.0384037  
H37      H      0.469400000000     0.467580000000     0.209790000000     0.0417787  
H38      H      0.462410000000     0.503390000000     0.165370000000     0.0412323  
H39      H      0.449730000000     0.498740000000     0.359880000000     0.0417396  
H40      H      0.511630000000     0.578780000000     0.102950000000     0.0417579  
H41      H      0.530280000000     0.709780000000     0.465430000000     0.0417794  
H42      H      0.471290000000     0.814370000000     0.457680000000     0.035867   
H43      H      0.541120000000     0.814880000000     0.528260000000     0.0411591  
H44      H      0.445790000000     0.633250000000     0.499030000000     0.0410633  
H45      H      0.503140000000     0.858940000000     0.445540000000     0.0415481  
H46      H      0.526450000000     0.677440000000     0.538880000000     0.0355779  
H47      H      0.457210000000     0.678730000000     0.467740000000     0.0356541  
H48      H      0.530640000000     0.619350000000     0.534240000000     0.0454011  
H49      H      0.535870000000     0.873820000000     0.532170000000     0.0368626  
H50      H      0.538180000000     0.766290000000     0.459660000000     0.0451283  
H51      H      0.466790000000     0.872650000000     0.461280000000     0.0454403  
H52      H      0.460820000000     0.726690000000     0.536760000000     0.0455197  
H53      H      0.462280000000     0.828620000000     0.496420000000     0.0383644  
H54      H      0.461510000000     0.620350000000     0.462240000000     0.0448386  
H55      H      0.536220000000     0.664230000000     0.499940000000     0.0386862  
H56      H      0.496080000000     0.665140000000     0.458610000000     0.0385014  
H57      H      0.468810000000     0.783220000000     0.531050000000     0.0415953  
H58      H      0.502520000000     0.829060000000     0.536710000000     0.0408219  
H59      H      0.493550000000     0.632730000000     0.548630000000     0.0411097  
H60      H      0.563330000000     0.843630000000     0.461220000000     0.0386033  
H61      H      0.467990000000     0.283060000000     0.464840000000     0.0417697  
H62      H      0.529000000000     0.179250000000     0.451710000000     0.0356566  
H63      H      0.462340000000     0.177280000000     0.525330000000     0.0413462  
H64      H      0.552590000000     0.360260000000     0.496490000000     0.0418806  
H65      H      0.497240000000     0.134080000000     0.441160000000     0.0404409  
H66      H      0.474450000000     0.314070000000     0.538410000000     0.0356463  
H67      H      0.540810000000     0.315290000000     0.464560000000     0.0357372  
H68      H      0.468920000000     0.372230000000     0.534830000000     0.0452096  
H69      H      0.468660000000     0.118680000000     0.528880000000     0.0380852  
H70      H      0.461250000000     0.226520000000     0.457940000000     0.0449845  
H71      H      0.534690000000     0.121030000000     0.454780000000     0.0449116  
H72      H      0.541450000000     0.266200000000     0.532040000000     0.0457672  
H73      H      0.540120000000     0.165070000000     0.489930000000     0.0386361  
H74      H      0.535570000000     0.373540000000     0.460420000000     0.0454972  
H75      H      0.462840000000     0.327720000000     0.500130000000     0.038588   
H76      H      0.501380000000     0.328400000000     0.457220000000     0.0385531  
H77      H      0.534680000000     0.209660000000     0.525170000000     0.0417602  
H78      H      0.501530000000     0.163790000000     0.532150000000     0.0414592  
H79      H      0.506760000000     0.359310000000     0.547620000000     0.0413697  
H80      H      0.438080000000     0.149020000000     0.459310000000     0.0381492  
H81      H      0.464450000000     0.720220000000     0.043380000000     0.0413594  
H82      H      0.509760000000     0.815190000000     0.015850000000     0.0354768  
H83      H      0.422110000000     0.822380000000     0.969740000000     0.0411252  
H84      H      0.491800000000     0.637380000000     0.953420000000     0.0438415  
H85      H      0.487740000000     0.863240000000     0.034850000000     0.0415129  
H86      H      0.422320000000     0.676120000000     0.014500000000     0.0358028  
H87      H      0.512150000000     0.685870000000     0.973440000000     0.0351504  
H88      H      0.433830000000     0.618850000000     0.024870000000     0.0447884  
H89      H      0.432950000000     0.880140000000     0.960270000000     0.0375994  
H90      H      0.462470000000     0.777190000000     0.044780000000     0.0443963  
H91      H      0.518800000000     0.872550000000     0.008160000000     0.0431486  
H92      H      0.465330000000     0.722750000000     0.942250000000     0.0453384  
H93      H      0.507530000000     0.827270000000     0.975450000000     0.0392722  
H94      H      0.522140000000     0.628820000000     0.981220000000     0.0441691  
H95      H      0.457030000000     0.668310000000     0.037330000000     0.037279   
H96      H      0.508230000000     0.673640000000     0.013680000000     0.0393848  
H97      H      0.466180000000     0.779740000000     0.943720000000     0.0414715  
H98      H      0.457750000000     0.831710000000     0.949450000000     0.0402915  
H99      H      0.428370000000     0.629170000000     0.984570000000     0.0410938  
H100     H      0.423530000000     0.856620000000     0.038080000000     0.0389695  
H101     H      0.496610000000     0.219720000000     0.938190000000     0.0413103  
H102     H      0.453040000000     0.318910000000     0.962110000000     0.0350214  
H103     H      0.539320000000     0.320020000000     0.011350000000     0.0412452  
H104     H      0.474330000000     0.137640000000     0.031810000000     0.0428341  
H105     H      0.479400000000     0.365390000000     0.944220000000     0.0413813  
H106     H      0.538570000000     0.178660000000     0.966300000000     0.0355435  
H107     H      0.450000000000     0.183840000000     0.010830000000     0.0351944  
H108     H      0.530740000000     0.120440000000     0.958560000000     0.0450983  
H109     H      0.532890000000     0.378140000000     0.020100000000     0.0382434  
H110     H      0.498710000000     0.276650000000     0.935750000000     0.0443473  
H111     H      0.447850000000     0.376930000000     0.969430000000     0.0428045  
H112     H      0.492420000000     0.224240000000     0.039200000000     0.0448749  
H113     H      0.454450000000     0.330860000000     0.002590000000     0.0396823  
H114     H      0.443830000000     0.125810000000     0.005460000000     0.0436358  
H115     H      0.503530000000     0.167610000000     0.945380000000     0.0375529  
H116     H      0.453210000000     0.170360000000     0.970950000000     0.0394202  
H117     H      0.491460000000     0.281150000000     0.036550000000     0.0414361  
H118     H      0.503820000000     0.332070000000     0.030480000000     0.04061    
H119     H      0.537260000000     0.132710000000     0.998130000000     0.0409352  
H120     H      0.542030000000     0.352730000000     0.942880000000     0.0390228  
H121     H      0.502690000000     0.044090000000     0.773400000000     0.041701   
H122     H      0.551370000000     0.979160000000     0.670730000000     0.0359385  
H123     H      0.460950000000     0.020060000000     0.672630000000     0.0406201  
H124     H      0.541790000000     0.979240000000     0.859480000000     0.0400725  
H125     H      0.550380000000     0.012020000000     0.625190000000     0.0412084  
H126     H      0.456600000000     0.973120000000     0.806030000000     0.0354045  
H127     H      0.547600000000     0.011880000000     0.813940000000     0.0358044  
H128     H      0.448890000000     0.978680000000     0.863950000000     0.0448855  
H129     H      0.457530000000     0.014320000000     0.613830000000     0.0360798  
H130     H      0.505860000000     0.048800000000     0.716390000000     0.0447356  
H131     H      0.547190000000     0.972430000000     0.612170000000     0.0462475  
H132     H      0.502860000000     0.943670000000     0.765050000000     0.0450992  
H133     H      0.517760000000     0.957170000000     0.657630000000     0.0380565  
H134     H      0.539540000000     0.019100000000     0.872020000000     0.0453842  
H135     H      0.461550000000     0.012680000000     0.819640000000     0.0404083  
H136     H      0.513860000000     0.035060000000     0.824390000000     0.0383229  
H137     H      0.503100000000     0.948430000000     0.707960000000     0.0414835  
H138     H      0.466270000000     0.980890000000     0.658640000000     0.0416588  
H139     H      0.478850000000     0.951240000000     0.853240000000     0.0422838  
H140     H      0.516470000000     0.063220000000     0.642520000000     0.0381819  
H141     H      0.532790000000     0.995470000000     0.200670000000     0.041752   
H142     H      0.521100000000     0.037690000000     0.306000000000     0.0352693  
H143     H      0.482880000000     0.946230000000     0.308840000000     0.0414695  
H144     H      0.433880000000     0.017420000000     0.129870000000     0.0415356  
H145     H      0.547860000000     0.011030000000     0.348230000000     0.0410005  
H146     H      0.491000000000     0.946900000000     0.169500000000     0.0358873  
H147     H      0.461960000000     0.041620000000     0.172950000000     0.0352985  
H148     H      0.492030000000     0.948770000000     0.110860000000     0.0457013  
H149     H      0.481710000000     0.948870000000     0.367940000000     0.0385745  
H150     H      0.544930000000     0.992740000000     0.256660000000     0.0444456  
H151     H      0.521960000000     0.039700000000     0.364670000000     0.0437618  
H152     H      0.434180000000     0.997310000000     0.222190000000     0.0451553  
H153     H      0.483150000000     0.031220000000     0.323320000000     0.0400088  
H154     H      0.462280000000     0.044220000000     0.114190000000     0.0439613  
H155     H      0.516410000000     0.976770000000     0.153770000000     0.0391831  
H156     H      0.499540000000     0.032060000000     0.156240000000     0.0399296  
H157     H      0.446430000000     0.997580000000     0.278220000000     0.0418625  
H158     H      0.461350000000     0.978340000000     0.325340000000     0.0417869  
H159     H      0.453840000000     0.953860000000     0.127410000000     0.0397995  
H160     H      0.554280000000     0.951070000000     0.330560000000     0.0386674  
H161     H      0.781530000000     0.498630000000     0.539120000000     0.041896   
H162     H      0.680590000000     0.542600000000     0.516210000000     0.0349937  
H163     H      0.679660000000     0.453810000000     0.472100000000     0.0412626  
H164     H      0.863810000000     0.511950000000     0.446110000000     0.0420896  
H165     H      0.635690000000     0.516620000000     0.538040000000     0.0417513  
H166     H      0.816160000000     0.449080000000     0.506990000000     0.0359009  
H167     H      0.819580000000     0.540000000000     0.467580000000     0.0350738  
H168     H      0.874490000000     0.449640000000     0.514080000000     0.0458914  
H169     H      0.620910000000     0.458100000000     0.466020000000     0.0379104  
H170     H      0.724550000000     0.498430000000     0.543810000000     0.0445697  
H171     H      0.621890000000     0.545780000000     0.511190000000     0.0426058  
H172     H      0.773280000000     0.498210000000     0.438300000000     0.0451248  
H173     H      0.666730000000     0.538420000000     0.476520000000     0.0390285  
H174     H      0.878010000000     0.540590000000     0.473430000000     0.0440666  
H175     H      0.830670000000     0.481300000000     0.530200000000     0.038991   
H176     H      0.832290000000     0.533800000000     0.507420000000     0.039816   
H177     H      0.716360000000     0.501180000000     0.443020000000     0.0414457  
H178     H      0.665570000000     0.487780000000     0.451730000000     0.0405315  
H179     H      0.861880000000     0.449500000000     0.474030000000     0.0401619  
H180     H      0.650010000000     0.454020000000     0.542410000000     0.03922    
H181     H      0.283370000000     0.481560000000     0.550220000000     0.0414814  
H182     H      0.181130000000     0.521830000000     0.534760000000     0.0349454  
H183     H      0.178340000000     0.434890000000     0.486920000000     0.0413737  
H184     H      0.358960000000     0.504690000000     0.452500000000     0.0420787  
H185     H      0.136750000000     0.493700000000     0.555910000000     0.0406987  
H186     H      0.321250000000     0.438030000000     0.516390000000     0.0356913  
H187     H      0.313580000000     0.528490000000     0.476520000000     0.0349053  
H188     H      0.379570000000     0.444260000000     0.519960000000     0.0456462  
H189     H      0.119630000000     0.439670000000     0.482330000000     0.0383867  
H190     H      0.226840000000     0.477800000000     0.557570000000     0.0442584  
H191     H      0.122860000000     0.525650000000     0.532440000000     0.0435556  
H192     H      0.270170000000     0.484910000000     0.449960000000     0.0450757  
H193     H      0.166190000000     0.519850000000     0.495270000000     0.0399273  
H194     H      0.371930000000     0.534720000000     0.478920000000     0.0435791  
H195     H      0.333930000000     0.471750000000     0.538520000000     0.0384058  
H196     H      0.329110000000     0.523840000000     0.515550000000     0.039573   
H197     H      0.213560000000     0.484320000000     0.457490000000     0.0416994  
H198     H      0.164190000000     0.469620000000     0.467870000000     0.041515   
H199     H      0.364690000000     0.442460000000     0.480750000000     0.0404316  
H200     H      0.152320000000     0.433050000000     0.556950000000     0.0388156  
H201     H      0.704840000000     0.501110000000     0.037420000000     0.0418773  
H202     H      0.806150000000     0.449120000000     0.975390000000     0.0358965  
H203     H      0.809160000000     0.539050000000     0.017030000000     0.0404391  
H204     H      0.624190000000     0.458580000000     0.966490000000     0.0411297  
H205     H      0.850070000000     0.446360000000     0.010190000000     0.0412094  
H206     H      0.670910000000     0.546670000000     0.969460000000     0.0353104  
H207     H      0.669450000000     0.452270000000     0.999570000000     0.0356194  
H208     H      0.612420000000     0.549690000000     0.975530000000     0.0434546  
H209     H      0.868210000000     0.538060000000     0.013840000000     0.035785   
H210     H      0.761550000000     0.496890000000     0.044140000000     0.0448627  
H211     H      0.865010000000     0.449040000000     0.971100000000     0.0459106  
H212     H      0.716660000000     0.501060000000     0.936990000000     0.0452547  
H213     H      0.822590000000     0.481740000000     0.954200000000     0.0378645  
H214     H      0.611280000000     0.454840000000     0.006250000000     0.047143   
H215     H      0.657700000000     0.537350000000     0.008520000000     0.0398403  
H216     H      0.656370000000     0.482600000000     0.025920000000     0.038697   
H217     H      0.773510000000     0.499790000000     0.943740000000     0.0414886  
H218     H      0.824420000000     0.532850000000     0.978320000000     0.0415159  
H219     H      0.625270000000     0.523280000000     0.945410000000     0.0420712  
H220     H      0.833370000000     0.481300000000     0.061330000000     0.0383707  
H221     H      0.270850000000     0.532670000000     0.015730000000     0.0417227  
H222     H      0.173750000000     0.506420000000     0.969190000000     0.0350034  
H223     H      0.168000000000     0.463100000000     0.058440000000     0.0412382  
H224     H      0.354030000000     0.444190000000     0.989910000000     0.0414913  
H225     H      0.126400000000     0.526680000000     0.991880000000     0.0415301  
H226     H      0.311800000000     0.499430000000     0.061070000000     0.0357625  
H227     H      0.306230000000     0.465080000000     0.967950000000     0.0349051  
H228     H      0.369480000000     0.509480000000     0.053960000000     0.0453455  
H229     H      0.109820000000     0.454600000000     0.049630000000     0.037838   
H230     H      0.213760000000     0.535520000000     0.017010000000     0.0446169  
H231     H      0.115870000000     0.499420000000     0.961750000000     0.0431383  
H232     H      0.265780000000     0.432060000000     0.013560000000     0.0451038  
H233     H      0.161050000000     0.466450000000     0.972770000000     0.0389546  
H234     H      0.363700000000     0.473190000000     0.961030000000     0.0443124  
H235     H      0.321440000000     0.524840000000     0.028680000000     0.0383236  
H236     H      0.318120000000     0.504890000000     0.974940000000     0.0394983  
H237     H      0.208690000000     0.435020000000     0.011980000000     0.0415125  
H238     H      0.157300000000     0.442020000000     0.023620000000     0.0404779  
H239     H      0.358660000000     0.469060000000     0.053750000000     0.0403508  
H240     H      0.135430000000     0.531810000000     0.055570000000     0.039087   
H241     H      0.955710000000     0.519750000000     0.786380000000     0.0416293  
H242     H      0.018850000000     0.528300000000     0.683540000000     0.035682   
H243     H      0.947490000000     0.459620000000     0.679360000000     0.0411814  
H244     H      0.037940000000     0.481620000000     0.864210000000     0.041523   
H245     H      0.989040000000     0.540710000000     0.637250000000     0.0401974  
H246     H      0.955010000000     0.447510000000     0.818890000000     0.035644   
H247     H      0.028640000000     0.513770000000     0.818890000000     0.0354905  
H248     H      0.950230000000     0.452710000000     0.877500000000     0.0450994  
H249     H      0.955330000000     0.455600000000     0.620790000000     0.0375748  
H250     H      0.950450000000     0.526970000000     0.729480000000     0.0448188  
H251     H      0.026060000000     0.525050000000     0.625320000000     0.0450556  
H252     H      0.023580000000     0.446900000000     0.770750000000     0.045615   
H253     H      0.027910000000     0.489590000000     0.669610000000     0.0388631  
H254     H      0.024190000000     0.518930000000     0.877420000000     0.0450334  
H255     H      0.947730000000     0.486780000000     0.832250000000     0.0382451  
H256     H      0.990260000000     0.525020000000     0.832310000000     0.0380999  
H257     H      0.018430000000     0.454200000000     0.713890000000     0.0417267  
H258     H      0.986500000000     0.450090000000     0.667070000000     0.0412857  
H259     H      0.985880000000     0.434980000000     0.864340000000     0.0414989  
H260     H      0.928750000000     0.526670000000     0.650820000000     0.0381206  
H261     H      0.964190000000     0.459550000000     0.291300000000     0.0421742  
H262     H      0.951710000000     0.517700000000     0.183680000000     0.0359741  
H263     H      0.015530000000     0.441810000000     0.183280000000     0.0413748  
H264     H      0.010920000000     0.542670000000     0.362250000000     0.0413817  
H265     H      0.936050000000     0.485080000000     0.140260000000     0.0407919  
H266     H      0.039520000000     0.458570000000     0.318620000000     0.0360559  
H267     H      0.974890000000     0.533710000000     0.319440000000     0.0358736  
H268     H      0.038010000000     0.456160000000     0.377420000000     0.0460189  
H269     H      0.017880000000     0.444240000000     0.124500000000     0.0387969  
H270     H      0.952620000000     0.451740000000     0.235440000000     0.0449876  
H271     H      0.953330000000     0.520030000000     0.124910000000     0.0454245  
H272     H      0.037920000000     0.523850000000     0.266920000000     0.0457772  
H273     H      0.990460000000     0.523170000000     0.167890000000     0.0390612  
H274     H      0.973320000000     0.532520000000     0.377900000000     0.0468694  
H275     H      0.000850000000     0.452330000000     0.334350000000     0.0394778  
H276     H      0.963110000000     0.496350000000     0.335030000000     0.0394553  
H277     H      0.026390000000     0.516010000000     0.211080000000     0.0419269  
H278     H      0.027330000000     0.478870000000     0.167500000000     0.0422056  
H279     H      0.054360000000     0.491650000000     0.362110000000     0.0410049  
H280     H      0.946310000000     0.426150000000     0.159460000000     0.0383034  
H281     H      0.015020000000     0.769780000000     0.444020000000     0.0415339  
H282     H      0.057560000000     0.669060000000     0.519470000000     0.0355183  
H283     H      0.970390000000     0.675130000000     0.472220000000     0.0403728  
H284     H      0.055040000000     0.859740000000     0.500950000000     0.0412841  
H285     H      0.055970000000     0.621940000000     0.489390000000     0.0398904  
H286     H      0.969080000000     0.806850000000     0.514210000000     0.03484    
H287     H      0.058390000000     0.812460000000     0.471280000000     0.035603   
H288     H      0.961250000000     0.864360000000     0.505470000000     0.0431554  
H289     H      0.962580000000     0.617410000000     0.479860000000     0.0358491  
H290     H      0.016860000000     0.712840000000     0.443470000000     0.0448231  
H291     H      0.047940000000     0.611440000000     0.529180000000     0.0445805  
H292     H      0.014590000000     0.768790000000     0.545200000000     0.0451076  
H293     H      0.021600000000     0.659720000000     0.539640000000     0.037558   
H294     H      0.049220000000     0.869920000000     0.460670000000     0.0454995  
H295     H      0.972760000000     0.818370000000     0.473740000000     0.0390382  
H296     H      0.023520000000     0.821600000000     0.449160000000     0.0375184  
H297     H      0.013450000000     0.711790000000     0.544580000000     0.0414442  
H298     H      0.972330000000     0.662620000000     0.512320000000     0.0420575  
H299     H      0.991280000000     0.854800000000     0.533270000000     0.0427656  
H300     H      0.027030000000     0.638890000000     0.434170000000     0.0384224  
H301     H      0.990980000000     0.208070000000     0.451940000000     0.0416367  
H302     H      0.946290000000     0.311240000000     0.520740000000     0.0356256  
H303     H      0.033280000000     0.307300000000     0.472870000000     0.0406655  
H304     H      0.949870000000     0.123480000000     0.516650000000     0.0402286  
H305     H      0.945620000000     0.356270000000     0.487260000000     0.0395983  
H306     H      0.036330000000     0.173520000000     0.523690000000     0.0352205  
H307     H      0.945480000000     0.169060000000     0.483830000000     0.0356509  
H308     H      0.042150000000     0.115580000000     0.517620000000     0.0440699  
H309     H      0.038130000000     0.365750000000     0.477550000000     0.0366082  
H310     H      0.988660000000     0.264860000000     0.447490000000     0.0446235  
H311     H      0.952000000000     0.369560000000     0.526510000000     0.0451986  
H312     H      0.992130000000     0.215920000000     0.552800000000     0.0449997  
H313     H      0.981750000000     0.323860000000     0.540030000000     0.0381909  
H314     H      0.951240000000     0.111140000000     0.476550000000     0.0454491  
H315     H      0.031440000000     0.160560000000     0.483770000000     0.0398442  
H316     H      0.979020000000     0.157590000000     0.460740000000     0.0384381  
H317     H      0.992890000000     0.272770000000     0.548270000000     0.0415578  
H318     H      0.031220000000     0.321700000000     0.512330000000     0.0427595  
H319     H      0.012110000000     0.126990000000     0.544810000000     0.0421149  
H320     H      0.975030000000     0.337560000000     0.433720000000     0.0378918  
H321     H      0.791290000000     0.025570000000     0.513710000000     0.0418398  
H322     H      0.684630000000     0.037050000000     0.453420000000     0.0355834  
H323     H      0.686280000000     0.967740000000     0.524420000000     0.0413742  
H324     H      0.867870000000     0.985310000000     0.431990000000     0.0401969  
H325     H      0.640390000000     0.048910000000     0.486260000000     0.0406102  
H326     H      0.819670000000     0.950990000000     0.512000000000     0.0357031  
H327     H      0.823940000000     0.019810000000     0.440660000000     0.0356057  
H328     H      0.877970000000     0.953000000000     0.518020000000     0.0453089  
H329     H      0.627620000000     0.963340000000     0.521060000000     0.0385272  
H330     H      0.734900000000     0.034330000000     0.520370000000     0.044888   
H331     H      0.625960000000     0.032820000000     0.450260000000     0.0447637  
H332     H      0.772130000000     0.955220000000     0.443970000000     0.045492   
H333     H      0.670540000000     0.998240000000     0.445060000000     0.0381701  
H334     H      0.882220000000     0.022200000000     0.445860000000     0.0451812  
H335     H      0.834420000000     0.989350000000     0.521350000000     0.0387908  
H336     H      0.836990000000     0.029490000000     0.479690000000     0.0388929  
H337     H      0.715730000000     0.964040000000     0.450570000000     0.0417034  
H338     H      0.671190000000     0.958530000000     0.486240000000     0.041867   
H339     H      0.865090000000     0.938550000000     0.480700000000     0.0406744  
H340     H      0.658570000000     0.034710000000     0.545720000000     0.0382036  
H341     H      0.217300000000     0.028050000000     0.458780000000     0.041909   
H342     H      0.321560000000     0.032520000000     0.518230000000     0.0360539  
H343     H      0.321530000000     0.963180000000     0.447270000000     0.0411541  
H344     H      0.139140000000     0.991810000000     0.541230000000     0.041879   
H345     H      0.366910000000     0.043730000000     0.486810000000     0.0416342  
H346     H      0.184370000000     0.955730000000     0.458630000000     0.0358344  
H347     H      0.184930000000     0.023000000000     0.531490000000     0.0359933  
H348     H      0.126190000000     0.960950000000     0.453890000000     0.0463079  
H349     H      0.380300000000     0.957640000000     0.453490000000     0.0369453  
H350     H      0.274100000000     0.033010000000     0.451590000000     0.0450387  
H351     H      0.379670000000     0.027820000000     0.523490000000     0.0461471  
H352     H      0.232240000000     0.954310000000     0.525980000000     0.0457276  
H353     H      0.334810000000     0.993510000000     0.527030000000     0.0383269  
H354     H      0.126380000000     0.028880000000     0.526440000000     0.0452122  
H355     H      0.171260000000     0.995000000000     0.450830000000     0.0386532  
H356     H      0.171800000000     0.033900000000     0.492840000000     0.0384073  
H357     H      0.289040000000     0.959360000000     0.518890000000     0.0415409  
H358     H      0.334850000000     0.953760000000     0.486040000000     0.0409793  
H359     H      0.139170000000     0.944040000000     0.490080000000     0.0416706  
H360     H      0.351960000000     0.029310000000     0.426570000000     0.0384291  
H361     H      0.960830000000     0.696340000000     0.967810000000     0.0418443  
H362     H      0.952150000000     0.800970000000     0.029220000000     0.0359549  
H363     H      0.020270000000     0.801920000000     0.956970000000     0.0411707  
H364     H      0.000340000000     0.620750000000     0.051100000000     0.0414942  
H365     H      0.938820000000     0.845790000000     0.998090000000     0.0411652  
H366     H      0.033400000000     0.664140000000     0.967590000000     0.0356226  
H367     H      0.967650000000     0.665790000000     0.041970000000     0.0357227  
H368     H      0.027910000000     0.605760000000     0.963750000000     0.0449286  
H369     H      0.023910000000     0.860580000000     0.961790000000     0.037286   
H370     H      0.953010000000     0.752810000000     0.961530000000     0.0449201  
H371     H      0.955980000000     0.859540000000     0.033840000000     0.0446904  
H372     H      0.033770000000     0.713880000000     0.035410000000     0.0456689  
H373     H      0.991030000000     0.815270000000     0.037090000000     0.0382526  
H374     H      0.962290000000     0.607710000000     0.039100000000     0.0460027  
H375     H      0.993910000000     0.651050000000     0.960600000000     0.0383396  
H376     H      0.955740000000     0.651830000000     0.003900000000     0.0390316  
H377     H      0.025840000000     0.770360000000     0.029220000000     0.0415173  
H378     H      0.029870000000     0.816220000000     0.995340000000     0.0409352  
H379     H      0.045400000000     0.619210000000     0.999530000000     0.0409763  
H380     H      0.952190000000     0.829930000000     0.937360000000     0.0386517  
H381     H      0.956880000000     0.197010000000     0.023810000000     0.041759   
H382     H      0.021220000000     0.299970000000     0.031690000000     0.0358862  
H383     H      0.946920000000     0.303490000000     0.965930000000     0.0410908  
H384     H      0.036560000000     0.119700000000     0.980710000000     0.0410395  
H385     H      0.991750000000     0.345370000000     0.046610000000     0.0415055  
H386     H      0.953580000000     0.165800000000     0.950660000000     0.0355976  
H387     H      0.029760000000     0.164570000000     0.014290000000     0.0354104  
H388     H      0.948270000000     0.107490000000     0.955560000000     0.0448806  
H389     H      0.953030000000     0.362050000000     0.962810000000     0.0373768  
H390     H      0.952380000000     0.253520000000     0.032510000000     0.0450895  
H391     H      0.027160000000     0.358450000000     0.028340000000     0.0449033  
H392     H      0.022470000000     0.213700000000     0.948830000000     0.0454233  
H393     H      0.028120000000     0.314540000000     0.992650000000     0.037908   
H394     H      0.025450000000     0.106540000000     0.019060000000     0.045867   
H395     H      0.947390000000     0.152420000000     0.990260000000     0.0384376  
H396     H      0.991760000000     0.151520000000     0.027230000000     0.0384639  
H397     H      0.018040000000     0.270220000000     0.957630000000     0.0415049  
H398     H      0.985220000000     0.316970000000     0.955190000000     0.0409315  
H399     H      0.983860000000     0.120160000000     0.937210000000     0.0408682  
H400     H      0.930380000000     0.331130000000     0.035130000000     0.038688   
H401     H      0.696270000000     0.956190000000     0.968770000000     0.0418205  
H402     H      0.800960000000     0.016050000000     0.958980000000     0.0356319  
H403     H      0.803070000000     0.945220000000     0.028380000000     0.041303   
H404     H      0.622770000000     0.042450000000     0.006000000000     0.0413509  
H405     H      0.845900000000     0.984940000000     0.945770000000     0.0409441  
H406     H      0.662070000000     0.957860000000     0.040430000000     0.0356514  
H407     H      0.668220000000     0.031460000000     0.974260000000     0.0353812  
H408     H      0.603510000000     0.956230000000     0.033320000000     0.0447208  
H409     H      0.861860000000     0.950480000000     0.031380000000     0.0375363  
H410     H      0.752790000000     0.949000000000     0.961220000000     0.044785   
H411     H      0.859590000000     0.021040000000     0.961970000000     0.0450694  
H412     H      0.714580000000     0.024150000000     0.041050000000     0.0456828  
H413     H      0.815640000000     0.024660000000     0.997630000000     0.0381896  
H414     H      0.610180000000     0.030990000000     0.967570000000     0.0456943  
H415     H      0.649740000000     0.951160000000     0.000580000000     0.038562   
H416     H      0.653030000000     0.994050000000     0.962180000000     0.0383184  
H417     H      0.771110000000     0.017060000000     0.033400000000     0.0415481  
H418     H      0.817190000000     0.983670000000     0.037300000000     0.0410356  
H419     H      0.617930000000     0.991330000000     0.051170000000     0.0409718  
H420     H      0.830360000000     0.924790000000     0.960360000000     0.0384062  
H421     H      0.193930000000     0.027080000000     0.962990000000     0.041623   
H422     H      0.301310000000     0.039600000000     0.021810000000     0.0358618  
H423     H      0.301670000000     0.975440000000     0.946030000000     0.0412204  
H424     H      0.121680000000     0.980380000000     0.045300000000     0.040976   
H425     H      0.344740000000     0.054950000000     0.989050000000     0.0396316  
H426     H      0.167800000000     0.951380000000     0.961870000000     0.035782   
H427     H      0.164060000000     0.016680000000     0.036480000000     0.0355158  
H428     H      0.109190000000     0.951670000000     0.958190000000     0.045399   
H429     H      0.360390000000     0.972970000000     0.948620000000     0.0385108  
H430     H      0.249750000000     0.038550000000     0.955490000000     0.0450192  
H431     H      0.359970000000     0.037860000000     0.024240000000     0.0448605  
H432     H      0.217770000000     0.953790000000     0.028050000000     0.0454129  
H433     H      0.316950000000     0.000920000000     0.027540000000     0.0393433  
H434     H      0.105550000000     0.017260000000     0.033610000000     0.0460668  
H435     H      0.151440000000     0.989590000000     0.954950000000     0.038837   
H436     H      0.149160000000     0.027620000000     0.998470000000     0.0384128  
H437     H      0.273570000000     0.965200000000     0.020500000000     0.0420966  
H438     H      0.317310000000     0.963880000000     0.983340000000     0.0420037  
H439     H      0.124070000000     0.935840000000     0.994180000000     0.0408521  
H440     H      0.325700000000     0.044330000000     0.929820000000     0.0380557  
H441     H      0.037830000000     0.980500000000     0.775050000000     0.041512   
H442     H      0.972610000000     0.937170000000     0.668410000000     0.0355666  
H443     H      0.019220000000     0.024380000000     0.675980000000     0.0404356  
H444     H      0.974600000000     0.933180000000     0.856700000000     0.0415022  
H445     H      0.007440000000     0.937600000000     0.624400000000     0.0402381  
H446     H      0.960970000000     0.020570000000     0.808640000000     0.0350285  
H447     H      0.009270000000     0.934070000000     0.812320000000     0.0358775  
H448     H      0.963730000000     0.024820000000     0.867180000000     0.0434675  
H449     H      0.016610000000     0.030360000000     0.617180000000     0.0357395  
H450     H      0.043900000000     0.980280000000     0.718180000000     0.0446524  
H451     H      0.968760000000     0.944250000000     0.609840000000     0.0452317  
H452     H      0.937430000000     0.977880000000     0.764290000000     0.0448095  
H453     H      0.953500000000     0.972690000000     0.655870000000     0.0377696  
H454     H      0.013570000000     0.938890000000     0.871000000000     0.0465799  
H455     H      0.000420000000     0.018920000000     0.823490000000     0.0399357  
H456     H      0.028210000000     0.969320000000     0.825860000000     0.0381101  
H457     H      0.943480000000     0.980790000000     0.707470000000     0.0413217  
H458     H      0.980430000000     0.022130000000     0.660020000000     0.0420817  
H459     H      0.939970000000     0.993050000000     0.853390000000     0.0418681  
H460     H      0.060200000000     0.967230000000     0.645430000000     0.0383261  
H461     H      0.037230000000     0.996390000000     0.203300000000     0.041497   
H462     H      0.986750000000     0.046910000000     0.312260000000     0.0358207  
H463     H      0.024370000000     0.955280000000     0.307080000000     0.040591   
H464     H      0.961280000000     0.037230000000     0.127050000000     0.0399389  
H465     H      0.024520000000     0.043750000000     0.354140000000     0.0394031  
H466     H      0.963950000000     0.951460000000     0.177260000000     0.0352427  
H467     H      0.998690000000     0.043930000000     0.168950000000     0.035757   
H468     H      0.964200000000     0.945750000000     0.118760000000     0.0439352  
H469     H      0.023890000000     0.951960000000     0.365930000000     0.0366124  
H470     H      0.048770000000     0.999560000000     0.259350000000     0.044793   
H471     H      0.986180000000     0.043950000000     0.371000000000     0.044998   
H472     H      0.938350000000     0.997690000000     0.223620000000     0.0448338  
H473     H      0.964690000000     0.014410000000     0.327810000000     0.0390158  
H474     H      0.999760000000     0.038810000000     0.110450000000     0.0454748  
H475     H      0.002040000000     0.957950000000     0.160240000000     0.0399803  
H476     H      0.022170000000     0.011730000000     0.154920000000     0.0392747  
H477     H      0.949900000000     0.997870000000     0.279750000000     0.0417514  
H478     H      0.986620000000     0.961550000000     0.324480000000     0.0422975  
H479     H      0.937330000000     0.974860000000     0.132900000000     0.0414198  
H480     H      0.071270000000     0.008620000000     0.331010000000     0.0381881  
N1       N      0.481830000000     0.511490000000     0.878590000000    -0.163314   
N2       N      0.481100000000     0.514160000000     0.812400000000    -0.111795   
N3       N      0.501960000000     0.493840000000     0.681960000000    -0.113639   
N4       N      0.500880000000     0.494510000000     0.615840000000    -0.158243   
N5       N      0.504270000000     0.505320000000     0.114030000000    -0.162956   
N6       N      0.510040000000     0.507340000000     0.180080000000    -0.110088   
N7       N      0.493390000000     0.491480000000     0.311890000000    -0.113518   
N8       N      0.495560000000     0.494400000000     0.378000000000    -0.15775    
N9       N      0.507120000000     0.877870000000     0.491200000000    -0.162981   
N10      N      0.509050000000     0.811920000000     0.490110000000    -0.111652   
N11      N      0.489410000000     0.681030000000     0.505730000000    -0.113616   
N12      N      0.491680000000     0.615150000000     0.502340000000    -0.158201   
N13      N      0.496220000000     0.115130000000     0.486960000000    -0.163469   
N14      N      0.492810000000     0.180960000000     0.485940000000    -0.111724   
N15      N      0.510180000000     0.311780000000     0.503730000000    -0.113632   
N16      N      0.506530000000     0.377540000000     0.501550000000    -0.158642   
N17      N      0.472250000000     0.881710000000     0.991510000000    -0.163493   
N18      N      0.463630000000     0.816640000000     0.996920000000    -0.11125    
N19      N      0.465210000000     0.683290000000     0.990090000000    -0.113124   
N20      N      0.475240000000     0.618530000000     0.996160000000    -0.158235   
N21      N      0.494090000000     0.382570000000     0.988360000000    -0.163362   
N22      N      0.498280000000     0.317010000000     0.982980000000    -0.111447   
N23      N      0.496330000000     0.183780000000     0.992350000000    -0.1129     
N24      N      0.490810000000     0.118320000000     0.989250000000    -0.158168   
N25      N      0.505350000000     0.000370000000     0.608290000000    -0.162694   
N26      N      0.507960000000     0.003370000000     0.674240000000    -0.111049   
N27      N      0.503800000000     0.989060000000     0.807330000000    -0.113391   
N28      N      0.496270000000     0.993160000000     0.872820000000    -0.158241   
N29      N      0.507950000000     0.991720000000     0.370360000000    -0.163749   
N30      N      0.505130000000     0.990630000000     0.304340000000    -0.111789   
N31      N      0.473790000000     0.993360000000     0.174440000000    -0.113789   
N32      N      0.472670000000     0.995370000000     0.108470000000    -0.158631   
N33      N      0.616880000000     0.498220000000     0.496020000000    -0.163931   
N34      N      0.682590000000     0.496310000000     0.498100000000    -0.11136    
N35      N      0.815080000000     0.493250000000     0.483960000000    -0.113416   
N36      N      0.880700000000     0.492750000000     0.488550000000    -0.158869   
N37      N      0.116750000000     0.479740000000     0.512710000000    -0.163801   
N38      N      0.182620000000     0.476610000000     0.513990000000    -0.111544   
N39      N      0.314540000000     0.481640000000     0.493260000000    -0.11331    
N40      N      0.380130000000     0.487470000000     0.493850000000    -0.158571   
N41      N      0.870720000000     0.490050000000     0.999920000000    -0.163413   
N42      N      0.804900000000     0.492430000000     0.999940000000    -0.111662   
N43      N      0.673020000000     0.498420000000     0.981240000000    -0.113625   
N44      N      0.607310000000     0.500800000000     0.985720000000    -0.158431   
N45      N      0.107720000000     0.484230000000     0.009070000000    -0.163251   
N46      N      0.173130000000     0.488780000000     0.015880000000    -0.111251   
N47      N      0.306430000000     0.478770000000     0.015950000000    -0.113283   
N48      N      0.371600000000     0.486200000000     0.009150000000    -0.158429   
N49      N      0.986020000000     0.495230000000     0.618090000000    -0.16266    
N50      N      0.980520000000     0.496590000000     0.684220000000    -0.111802   
N51      N      0.994290000000     0.477920000000     0.816040000000    -0.113633   
N52      N      0.991850000000     0.480650000000     0.882190000000    -0.157785   
N53      N      0.980820000000     0.478030000000     0.120270000000    -0.163073   
N54      N      0.981140000000     0.477710000000     0.186600000000    -0.11181    
N55      N      0.009330000000     0.498000000000     0.315770000000    -0.113695   
N56      N      0.009440000000     0.497410000000     0.382010000000    -0.157666   
N57      N      0.008840000000     0.609190000000     0.497360000000    -0.164025   
N58      N      0.016360000000     0.674190000000     0.491860000000    -0.111226   
N59      N      0.015800000000     0.807460000000     0.496730000000    -0.113042   
N60      N      0.008440000000     0.872340000000     0.490210000000    -0.158785   
N61      N      0.991700000000     0.372320000000     0.495360000000    -0.163726   
N62      N      0.987650000000     0.306700000000     0.493220000000    -0.111475   
N63      N      0.989330000000     0.174030000000     0.507070000000    -0.113431   
N64      N      0.994750000000     0.108660000000     0.502180000000    -0.15868    
N65      N      0.622210000000     0.003190000000     0.490900000000    -0.162952   
N66      N      0.688280000000     0.005130000000     0.491470000000    -0.11133    
N67      N      0.818750000000     0.983280000000     0.474060000000    -0.113867   
N68      N      0.884680000000     0.983830000000     0.478590000000    -0.158581   
N69      N      0.384850000000     0.997800000000     0.483190000000    -0.163409   
N70      N      0.318920000000     0.000700000000     0.480010000000    -0.111272   
N71      N      0.187410000000     0.986640000000     0.497590000000    -0.113675   
N72      N      0.121550000000     0.989940000000     0.494950000000    -0.158258   
N73      N      0.984200000000     0.864660000000     0.992350000000    -0.163505   
N74      N      0.983320000000     0.798710000000     0.990380000000    -0.111732   
N75      N      0.003040000000     0.667940000000     0.006960000000    -0.113354   
N76      N      0.999380000000     0.602060000000     0.005230000000    -0.157962   
N77      N      0.984950000000     0.364910000000     0.001570000000    -0.163      
N78      N      0.981390000000     0.299030000000     0.001770000000    -0.111349   
N79      N      0.993830000000     0.168140000000     0.979950000000    -0.113966   
N80      N      0.990310000000     0.102300000000     0.982950000000    -0.158248   
N81      N      0.865380000000     0.980400000000     0.991130000000    -0.162528   
N82      N      0.799170000000     0.977930000000     0.990930000000    -0.111884   
N83      N      0.668200000000     0.996700000000     0.009920000000    -0.113785   
N84      N      0.602180000000     0.997570000000     0.004620000000    -0.15797    
N85      N      0.364650000000     0.010220000000     0.982210000000    -0.162991   
N86      N      0.298360000000     0.010020000000     0.981830000000    -0.11178    
N87      N      0.169170000000     0.981880000000     0.001250000000    -0.113438   
N88      N      0.103010000000     0.980200000000     0.999390000000    -0.15789    
N89      N      0.999870000000     0.983930000000     0.609020000000    -0.16349    
N90      N      0.999530000000     0.978570000000     0.674820000000    -0.111634   
N91      N      0.981900000000     0.975400000000     0.807580000000    -0.113405   
N92      N      0.982910000000     0.978840000000     0.873500000000    -0.158417   
N93      N      0.010970000000     0.999970000000     0.372610000000    -0.163572   
N94      N      0.008580000000     0.002530000000     0.306600000000    -0.111474   
N95      N      0.978560000000     0.998990000000     0.176250000000    -0.113615   
N96      N      0.977260000000     0.993580000000     0.110450000000    -0.158802   
O1       O      0.984210000000     0.983720000000     0.992160000000    -0.367197   
O2       O      0.965850000000     0.967350000000     0.065160000000    -0.304023   
O3       O      0.055510000000     0.999640000000     0.014680000000    -0.304455   
O4       O      0.003020000000     0.911610000000     0.975150000000    -0.30366    
O5       O      0.996590000000     0.008950000000     0.063000000000    -0.305694   
O6       O      0.966940000000     0.911300000000     0.012300000000    -0.303087   
O7       O      0.057100000000     0.965010000000     0.976150000000    -0.303293   
O8       O      0.966090000000     0.000060000000     0.919680000000    -0.303219   
O9       O      0.005870000000     0.055960000000     0.004480000000    -0.305329   
O10      O      0.002540000000     0.963260000000     0.920820000000    -0.303654   
O11      O      0.966620000000     0.055840000000     0.970700000000    -0.303683   
O12      O      0.911740000000     0.001130000000     0.973700000000    -0.301725   
O13      O      0.912780000000     0.964370000000     0.010270000000    -0.301283   
O14      O      0.002780000000     0.990820000000     0.490760000000    -0.368946   
O15      O      0.991800000000     0.016680000000     0.419810000000    -0.305061   
O16      O      0.075080000000     0.974600000000     0.473530000000    -0.30529    
O17      O      0.019640000000     0.062590000000     0.512690000000    -0.304041   
O18      O      0.022370000000     0.974870000000     0.418500000000    -0.303711   
O19      O      0.979350000000     0.062560000000     0.480070000000    -0.305805   
O20      O      0.074460000000     0.008790000000     0.512430000000    -0.302216   
O21      O      0.982520000000     0.968550000000     0.560710000000    -0.304988   
O22      O      0.024680000000     0.919900000000     0.472230000000    -0.306244   
O23      O      0.017670000000     0.006520000000     0.563840000000    -0.301174   
O24      O      0.984820000000     0.917780000000     0.505210000000    -0.305973   
O25      O      0.929960000000     0.969670000000     0.503520000000    -0.304567   
O26      O      0.932040000000     0.005310000000     0.465990000000    -0.304954   
O27      O      0.989310000000     0.483740000000     0.001480000000    -0.36678    
O28      O      0.916690000000     0.467870000000     0.983840000000    -0.304658   
O29      O      0.967810000000     0.500970000000     0.073460000000    -0.302819   
O30      O      0.006610000000     0.410830000000     0.018700000000    -0.303152   
O31      O      0.918300000000     0.508430000000     0.016020000000    -0.302459   
O32      O      0.968300000000     0.412490000000     0.983830000000    -0.304281   
O33      O      0.002040000000     0.462230000000     0.073730000000    -0.303801   
O34      O      0.062410000000     0.498460000000     0.984410000000    -0.304816   
O35      O      0.977150000000     0.556380000000     0.021740000000    -0.304902   
O36      O      0.059890000000     0.466250000000     0.024990000000    -0.304122   
O37      O      0.011960000000     0.554800000000     0.983330000000    -0.303058   
O38      O      0.009520000000     0.499880000000     0.929050000000    -0.303951   
O39      O      0.970940000000     0.465340000000     0.929200000000    -0.303683   
O40      O      0.999080000000     0.490810000000     0.500110000000    -0.367926   
O41      O      0.976270000000     0.419290000000     0.515690000000    -0.305588   
O42      O      0.022740000000     0.474810000000     0.428900000000    -0.302196   
O43      O      0.928840000000     0.513130000000     0.477570000000    -0.305718   
O44      O      0.014130000000     0.418380000000     0.480330000000    -0.303278   
O45      O      0.925400000000     0.473360000000     0.510480000000    -0.305552   
O46      O      0.987220000000     0.512520000000     0.428320000000    -0.304326   
O47      O      0.023310000000     0.561650000000     0.517170000000    -0.306029   
O48      O      0.070750000000     0.466530000000     0.488810000000    -0.304788   
O49      O      0.984530000000     0.564000000000     0.482940000000    -0.305535   
O50      O      0.070500000000     0.503520000000     0.525050000000    -0.305575   
O51      O      0.010740000000     0.510310000000     0.572900000000    -0.303387   
O52      O      0.973420000000     0.474390000000     0.570240000000    -0.30192    
O53      O      0.483450000000     0.999900000000     0.990580000000    -0.367343   
O54      O      0.411220000000     0.989050000000     0.966480000000    -0.304051   
O55      O      0.463270000000     0.019850000000     0.061770000000    -0.302938   
O56      O      0.497440000000     0.926320000000     0.006570000000    -0.304939   
O57      O      0.411330000000     0.023190000000     0.005360000000    -0.303026   
O58      O      0.457930000000     0.929910000000     0.973170000000    -0.302753   
O59      O      0.492140000000     0.976810000000     0.062260000000    -0.304649   
O60      O      0.557860000000     0.015260000000     0.980450000000    -0.30557    
O61      O      0.468280000000     0.073060000000     0.006440000000    -0.30398    
O62      O      0.553440000000     0.978140000000     0.016180000000    -0.302756   
O63      O      0.507360000000     0.070310000000     0.972410000000    -0.303542   
O64      O      0.511030000000     0.012670000000     0.920530000000    -0.303735   
O65      O      0.469530000000     0.981690000000     0.917760000000    -0.303782   
O66      O      0.503570000000     0.996670000000     0.489190000000    -0.367723   
O67      O      0.430930000000     0.013370000000     0.505320000000    -0.305434   
O68      O      0.489760000000     0.974090000000     0.417520000000    -0.304108   
O69      O      0.517520000000     0.069300000000     0.469520000000    -0.305541   
O70      O      0.432150000000     0.977650000000     0.467830000000    -0.302526   
O71      O      0.482320000000     0.067760000000     0.507520000000    -0.302691   
O72      O      0.521350000000     0.015050000000     0.416660000000    -0.304292   
O73      O      0.576080000000     0.981670000000     0.507260000000    -0.303893   
O74      O      0.486800000000     0.923950000000     0.473430000000    -0.305553   
O75      O      0.574820000000     0.018930000000     0.471290000000    -0.303729   
O76      O      0.524210000000     0.925360000000     0.509310000000    -0.301746   
O77      O      0.524010000000     0.982050000000     0.561520000000    -0.304713   
O78      O      0.483030000000     0.013690000000     0.561430000000    -0.302676   
O79      O      0.488920000000     0.500770000000     0.996490000000    -0.368993   
O80      O      0.461340000000     0.569930000000     0.013870000000    -0.303436   
O81      O      0.559990000000     0.524190000000     0.976900000000    -0.304155   
O82      O      0.514990000000     0.482820000000     0.066390000000    -0.303132   
O83      O      0.502490000000     0.574700000000     0.982670000000    -0.304672   
O84      O      0.478940000000     0.519940000000     0.069180000000    -0.306272   
O85      O      0.561840000000     0.481340000000     0.005820000000    -0.305056   
O86      O      0.472590000000     0.429430000000     0.974120000000    -0.303948   
O87      O      0.503120000000     0.525150000000     0.925870000000    -0.302832   
O88      O      0.509690000000     0.428660000000     0.010380000000    -0.304128   
O89      O      0.467100000000     0.487960000000     0.924440000000    -0.304959   
O90      O      0.416800000000     0.479640000000     0.981350000000    -0.30572    
O91      O      0.418060000000     0.507670000000     0.024920000000    -0.304895   
O92      O      0.498290000000     0.496350000000     0.496950000000    -0.367178   
O93      O      0.425410000000     0.512090000000     0.479560000000    -0.303561   
O94      O      0.484990000000     0.423640000000     0.517850000000    -0.306143   
O95      O      0.515420000000     0.477740000000     0.424880000000    -0.304857   
O96      O      0.427730000000     0.472380000000     0.512800000000    -0.305946   
O97      O      0.478910000000     0.514510000000     0.424950000000    -0.302485   
O98      O      0.519460000000     0.424410000000     0.479300000000    -0.305083   
O99      O      0.570180000000     0.518230000000     0.512790000000    -0.30503    
O100     O      0.480160000000     0.478330000000     0.569140000000    -0.304779   
O101     O      0.570090000000     0.479250000000     0.478670000000    -0.305826   
O102     O      0.518280000000     0.513360000000     0.568770000000    -0.304274   
O103     O      0.513180000000     0.568600000000     0.517270000000    -0.305642   
O104     O      0.476690000000     0.568570000000     0.480470000000    -0.303318   
S1       S      0.477360000000     0.571420000000     0.861500000000    -0.0368951  
S2       S      0.513380000000     0.564520000000     0.131660000000    -0.0399962  
S3       S      0.567100000000     0.860360000000     0.488350000000    -0.0346048  
S4       S      0.435820000000     0.131410000000     0.486060000000    -0.0358482  
S5       S      0.413840000000     0.872140000000     0.011700000000    -0.0359865  
S6       S      0.551900000000     0.368700000000     0.968920000000    -0.0380811  
S7       S      0.489200000000     0.057990000000     0.626450000000    -0.0335105  
S8       S      0.533180000000     0.938010000000     0.350910000000    -0.038852   
S9       S      0.633640000000     0.442030000000     0.517520000000    -0.0366125  
S10      S      0.132830000000     0.423090000000     0.533470000000    -0.0391744  
S11      S      0.851290000000     0.507490000000     0.056950000000    -0.0334069  
S12      S      0.119300000000     0.506370000000     0.066490000000    -0.0364126  
S13      S      0.925370000000     0.500590000000     0.632510000000    -0.036353   
S14      S      0.970810000000     0.419510000000     0.139820000000    -0.0371976  
S15      S      0.997930000000     0.625970000000     0.437890000000    -0.0343355  
S16      S      0.002760000000     0.353380000000     0.436590000000    -0.0341312  
S17      S      0.641180000000     0.008230000000     0.550430000000    -0.0359395  
S18      S      0.368640000000     0.002230000000     0.422810000000    -0.0349532  
S19      S      0.978920000000     0.846940000000     0.932460000000    -0.0361384  
S20      S      0.924980000000     0.348550000000     0.008710000000    -0.0347063  
S21      S      0.848020000000     0.920550000000     0.986840000000    -0.0361638  
S22      S      0.345220000000     0.019760000000     0.923370000000    -0.0368791  
S23      S      0.057560000000     0.995470000000     0.630530000000    -0.0342548  
S24      S      0.066830000000     0.983080000000     0.349860000000    -0.0366145  
Zn1      Zn     0.958580000000     0.957240000000     0.019410000000     0.448674   
Zn2      Zn     0.009850000000     0.011170000000     0.017850000000     0.451673   
Zn3      Zn     0.011290000000     0.957060000000     0.966750000000     0.450116   
Zn4      Zn     0.957670000000     0.009700000000     0.965210000000     0.447504   
Zn5      Zn     0.977330000000     0.018150000000     0.464840000000     0.450713   
Zn6      Zn     0.029990000000     0.965770000000     0.464200000000     0.453224   
Zn7      Zn     0.028160000000     0.016620000000     0.518820000000     0.449688   
Zn8      Zn     0.975440000000     0.962870000000     0.514390000000     0.450517   
Zn9      Zn     0.962030000000     0.458220000000     0.975260000000     0.449973   
Zn10     Zn     0.963970000000     0.511710000000     0.027360000000     0.450533   
Zn11     Zn     0.013970000000     0.456460000000     0.028620000000     0.451771   
Zn12     Zn     0.017230000000     0.508450000000     0.974940000000     0.447724   
Zn13     Zn     0.969730000000     0.465130000000     0.523840000000     0.450602   
Zn14     Zn     0.025850000000     0.463540000000     0.474980000000     0.450913   
Zn15     Zn     0.975290000000     0.519180000000     0.473410000000     0.453182   
Zn16     Zn     0.025160000000     0.515860000000     0.528090000000     0.449872   
Zn17     Zn     0.456250000000     0.975970000000     0.962740000000     0.450227   
Zn18     Zn     0.457430000000     0.028200000000     0.015460000000     0.449125   
Zn19     Zn     0.506400000000     0.971080000000     0.017680000000     0.449002   
Zn20     Zn     0.513850000000     0.023910000000     0.966420000000     0.449766   
Zn21     Zn     0.475890000000     0.021790000000     0.515440000000     0.452589   
Zn22     Zn     0.478510000000     0.968890000000     0.463000000000     0.450937   
Zn23     Zn     0.528590000000     0.024220000000     0.462450000000     0.450667   
Zn24     Zn     0.531000000000     0.971810000000     0.515960000000     0.450431   
Zn25     Zn     0.462390000000     0.523970000000     0.025280000000     0.449569   
Zn26     Zn     0.513380000000     0.530380000000     0.971760000000     0.450595   
Zn27     Zn     0.517560000000     0.474000000000     0.019650000000     0.451157   
Zn28     Zn     0.462180000000     0.475330000000     0.969630000000     0.45069    
Zn29     Zn     0.470820000000     0.522500000000     0.471160000000     0.446171   
Zn30     Zn     0.473340000000     0.468760000000     0.523420000000     0.451823   
Zn31     Zn     0.524800000000     0.470290000000     0.470480000000     0.452264   
Zn32     Zn     0.524360000000     0.523400000000     0.522970000000     0.450479   


