data_structure

_audit_creation_method RASPA-1.0
_audit_creation_date 2023-5-19
_audit_author_name 'Poobodin Mano'

_cell_length_a    42.741
_cell_length_b    42.7613
_cell_length_c    42.8399
_cell_angle_alpha 90
_cell_angle_beta  90
_cell_angle_gamma 90
_cell_volume      78296.8

_symmetry_cell_setting          triclinic
_symmetry_space_group_name_Hall 'P 1'
_symmetry_space_group_name_H-M  'P 1'
_symmetry_Int_Tables_number     1

_symmetry_equiv_pos_as_xyz 'x,y,z'

loop_
_atom_site_label
_atom_site_type_symbol
_atom_site_fract_x
_atom_site_fract_y
_atom_site_fract_z
_atom_site_charge
C1       C      0.996640000000     0.004450000000     0.089620000000     0.361788   
C2       C      0.084310000000     0.005910000000     0.006180000000     0.357919   
C3       C      0.994450000000     0.922210000000     0.996110000000     0.364734   
C4       C      0.998340000000     0.013360000000     0.916610000000     0.361724   
C5       C      0.998610000000     0.096180000000     0.007340000000     0.361273   
C6       C      0.910900000000     0.011420000000     0.004510000000     0.358887   
C7       C      0.001230000000     0.997240000000     0.416480000000     0.359763   
C8       C      0.090580000000     0.999660000000     0.501380000000     0.361053   
C9       C      0.008930000000     0.088730000000     0.497370000000     0.361495   
C10      C      0.002950000000     0.008020000000     0.589430000000     0.359479   
C11      C      0.001930000000     0.914800000000     0.507290000000     0.359496   
C12      C      0.917620000000     0.003270000000     0.503010000000     0.36112    
C13      C      0.926080000000     0.513390000000     0.009930000000     0.35898    
C14      C      0.012780000000     0.510100000000     0.095990000000     0.359433   
C15      C      0.012340000000     0.423180000000     0.006640000000     0.358252   
C16      C      0.099900000000     0.510270000000     0.013260000000     0.359651   
C17      C      0.015260000000     0.596810000000     0.006920000000     0.35917    
C18      C      0.014370000000     0.507910000000     0.922650000000     0.359728   
C19      C      0.090280000000     0.505950000000     0.506590000000     0.36099    
C20      C      0.001210000000     0.506730000000     0.422940000000     0.358862   
C21      C      0.006880000000     0.415200000000     0.508640000000     0.360316   
C22      C      0.916890000000     0.497670000000     0.507990000000     0.361106   
C23      C      0.001960000000     0.588270000000     0.517400000000     0.359934   
C24      C      0.003750000000     0.497540000000     0.596070000000     0.359837   
C25      C      0.411820000000     0.004790000000     0.002670000000     0.358941   
C26      C      0.503600000000     0.006130000000     0.089370000000     0.358645   
C27      C      0.493960000000     0.914200000000     0.010260000000     0.358459   
C28      C      0.584950000000     0.995780000000     0.995230000000     0.362049   
C29      C      0.501420000000     0.088060000000     0.001290000000     0.358159   
C30      C      0.494520000000     0.998380000000     0.916630000000     0.362378   
C31      C      0.417780000000     0.001490000000     0.504650000000     0.361165   
C32      C      0.504900000000     0.007620000000     0.416720000000     0.359448   
C33      C      0.504510000000     0.090850000000     0.505320000000     0.362066   
C34      C      0.590960000000     0.007280000000     0.509110000000     0.361573   
C35      C      0.507200000000     0.917850000000     0.499220000000     0.361828   
C36      C      0.500180000000     0.000110000000     0.590070000000     0.361402   
C37      C      0.425690000000     0.497080000000     0.994830000000     0.361672   
C38      C      0.517990000000     0.415220000000     0.001550000000     0.359038   
C39      C      0.514880000000     0.498250000000     0.911420000000     0.358875   
C40      C      0.598960000000     0.503370000000     0.006130000000     0.358884   
C41      C      0.504520000000     0.508010000000     0.084020000000     0.361619   
C42      C      0.512180000000     0.589020000000     0.991420000000     0.360272   
C43      C      0.417650000000     0.506410000000     0.497870000000     0.361211   
C44      C      0.501380000000     0.417580000000     0.497360000000     0.361878   
C45      C      0.500620000000     0.504090000000     0.410490000000     0.36206    
C46      C      0.590990000000     0.504010000000     0.490450000000     0.361534   
C47      C      0.509210000000     0.501200000000     0.584010000000     0.359258   
C48      C      0.507060000000     0.590660000000     0.499250000000     0.36197    
C49      C      0.542980000000     0.488910000000     0.829260000000    -0.0289657  
C50      C      0.537940000000     0.514560000000     0.665750000000    -0.028644   
C51      C      0.488460000000     0.480390000000     0.633380000000    -0.00975083 
C52      C      0.541940000000     0.507090000000     0.631000000000    -0.0107622  
C53      C      0.518020000000     0.463040000000     0.730910000000    -0.0536228  
C54      C      0.515820000000     0.519220000000     0.764180000000    -0.0553433  
C55      C      0.518450000000     0.491410000000     0.714550000000     0.0614035  
C56      C      0.486950000000     0.490210000000     0.667670000000    -0.0288188  
C57      C      0.514440000000     0.490570000000     0.780440000000     0.0614756  
C58      C      0.491390000000     0.512120000000     0.828380000000    -0.0285859  
C59      C      0.515800000000     0.462620000000     0.763440000000    -0.0536943  
C60      C      0.485200000000     0.503570000000     0.862480000000    -0.0106924  
C61      C      0.539420000000     0.478420000000     0.863270000000    -0.0097174  
C62      C      0.516880000000     0.519630000000     0.731520000000    -0.0553456  
C63      C      0.515710000000     0.534950000000     0.166240000000    -0.0288335  
C64      C      0.490930000000     0.533000000000     0.328990000000    -0.0288215  
C65      C      0.506580000000     0.474950000000     0.361230000000    -0.0104619  
C66      C      0.480270000000     0.528630000000     0.362740000000    -0.00946944 
C67      C      0.521280000000     0.507700000000     0.263380000000    -0.0554217  
C68      C      0.464770000000     0.511900000000     0.230810000000    -0.0537827  
C69      C      0.492750000000     0.505610000000     0.279770000000     0.0617096  
C70      C      0.514870000000     0.481790000000     0.327160000000    -0.0286125  
C71      C      0.493020000000     0.513170000000     0.214280000000     0.0616319  
C72      C      0.491230000000     0.483880000000     0.166190000000    -0.0287869  
C73      C      0.521410000000     0.510510000000     0.230840000000    -0.0554594  
C74      C      0.481210000000     0.486970000000     0.132130000000    -0.00957655 
C75      C      0.508030000000     0.540250000000     0.131710000000    -0.0104344  
C76      C      0.464630000000     0.507910000000     0.263130000000    -0.0538302  
C77      C      0.525060000000     0.672950000000     0.523240000000    -0.0287522  
C78      C      0.492920000000     0.834940000000     0.474040000000    -0.028703   
C79      C      0.525470000000     0.869150000000     0.523290000000    -0.00988298 
C80      C      0.483750000000     0.868940000000     0.480220000000    -0.00997929 
C81      C      0.528140000000     0.773020000000     0.479830000000    -0.0562871  
C82      C      0.490670000000     0.735390000000     0.518020000000    -0.0561555  
C83      C      0.506720000000     0.786940000000     0.500580000000     0.0621019  
C84      C      0.532380000000     0.835310000000     0.514390000000    -0.0284421  
C85      C      0.512010000000     0.721460000000     0.497210000000     0.0619952  
C86      C      0.485730000000     0.673710000000     0.482660000000    -0.0284033  
C87      C      0.530660000000     0.740510000000     0.478230000000    -0.0536543  
C88      C      0.491970000000     0.639770000000     0.473690000000    -0.0100787  
C89      C      0.533370000000     0.638750000000     0.516810000000    -0.00995949 
C90      C      0.488140000000     0.767900000000     0.519620000000    -0.053729   
C91      C      0.483550000000     0.336060000000     0.522740000000    -0.0287418  
C92      C      0.520700000000     0.173360000000     0.482250000000    -0.0287618  
C93      C      0.487860000000     0.139390000000     0.531400000000    -0.0101264  
C94      C      0.530470000000     0.139810000000     0.489690000000    -0.0100188  
C95      C      0.482990000000     0.233990000000     0.484940000000    -0.0561544  
C96      C      0.519690000000     0.274500000000     0.520880000000    -0.0562592  
C97      C      0.504580000000     0.221700000000     0.506520000000     0.0619677  
C98      C      0.480260000000     0.172970000000     0.521840000000    -0.0285676  
C99      C      0.498150000000     0.286780000000     0.499240000000     0.0620151  
C100     C      0.523220000000     0.334550000000     0.482400000000    -0.0286448  
C101     C      0.479880000000     0.266300000000     0.481410000000    -0.053655   
C102     C      0.516200000000     0.368020000000     0.472140000000    -0.00998479 
C103     C      0.474470000000     0.369680000000     0.514690000000    -0.0100601  
C104     C      0.522790000000     0.242180000000     0.524420000000    -0.0536279  
C105     C      0.527090000000     0.671170000000     0.014110000000    -0.0289822  
C106     C      0.476350000000     0.832820000000     0.987350000000    -0.028424   
C107     C      0.509790000000     0.865300000000     0.037040000000    -0.0104472  
C108     C      0.465610000000     0.865350000000     0.997660000000    -0.0089423  
C109     C      0.480070000000     0.760660000000     0.023480000000    -0.0526572  
C110     C      0.522510000000     0.742660000000     0.977160000000    -0.054388   
C111     C      0.496390000000     0.783660000000     0.006800000000     0.059812   
C112     C      0.518590000000     0.832580000000     0.025280000000    -0.0290537  
C113     C      0.506270000000     0.719650000000     0.993910000000     0.0629469  
C114     C      0.484950000000     0.670020000000     0.976140000000    -0.0287443  
C115     C      0.484910000000     0.728920000000     0.017180000000    -0.0576656  
C116     C      0.494430000000     0.637330000000     0.964790000000    -0.0104319  
C117     C      0.538610000000     0.638800000000     0.004250000000    -0.0120513  
C118     C      0.517660000000     0.774400000000     0.983450000000    -0.0542824  
C119     C      0.534390000000     0.332590000000     0.978980000000    -0.0283955  
C120     C      0.490370000000     0.171830000000     0.024360000000    -0.0292459  
C121     C      0.520200000000     0.135650000000     0.974880000000    -0.010681   
C122     C      0.478880000000     0.138540000000     0.017800000000    -0.0109446  
C123     C      0.490770000000     0.240120000000     0.980400000000    -0.0543917  
C124     C      0.535580000000     0.263210000000     0.021990000000    -0.0526675  
C125     C      0.508040000000     0.219170000000     0.998710000000     0.0631503  
C126     C      0.529640000000     0.168960000000     0.983820000000    -0.0273026  
C127     C      0.518220000000     0.284170000000     0.003760000000     0.0598846  
C128     C      0.495610000000     0.333310000000     0.020240000000    -0.0286069  
C129     C      0.495720000000     0.272350000000     0.982840000000    -0.0542385  
C130     C      0.504090000000     0.366760000000     0.029540000000    -0.0105444  
C131     C      0.544590000000     0.366240000000     0.986050000000    -0.00985495 
C132     C      0.530620000000     0.230970000000     0.019550000000    -0.0576866  
C133     C      0.487400000000     0.022630000000     0.673170000000    -0.0291613  
C134     C      0.508390000000     0.021030000000     0.833560000000    -0.0287936  
C135     C      0.474630000000     0.973360000000     0.868860000000    -0.00932587 
C136     C      0.499550000000     0.027650000000     0.867470000000    -0.0105996  
C137     C      0.459630000000     0.995340000000     0.768730000000    -0.0538166  
C138     C      0.517010000000     0.993830000000     0.737450000000    -0.0553391  
C139     C      0.487430000000     0.997150000000     0.785940000000     0.0618801  
C140     C      0.485470000000     0.969290000000     0.835080000000    -0.0289408  
C141     C      0.488940000000     0.991820000000     0.720270000000     0.0617496  
C142     C      0.513070000000     0.972260000000     0.671950000000    -0.0286619  
C143     C      0.460380000000     0.992450000000     0.736300000000    -0.0536991  
C144     C      0.505980000000     0.967750000000     0.637230000000    -0.0103738  
C145     C      0.477900000000     0.020510000000     0.638870000000    -0.00966336 
C146     C      0.516260000000     0.995510000000     0.770040000000    -0.0554594  
C147     C      0.530420000000     0.992190000000     0.171470000000    -0.0285861  
C148     C      0.532530000000     0.017940000000     0.334670000000    -0.0294287  
C149     C      0.475380000000     0.000860000000     0.367810000000    -0.0115516  
C150     C      0.528440000000     0.028410000000     0.368570000000    -0.00950372 
C151     C      0.506020000000     0.986910000000     0.269260000000    -0.0549305  
C152     C      0.509240000000     0.043440000000     0.236680000000    -0.0536441  
C153     C      0.504330000000     0.015380000000     0.285790000000     0.0610427  
C154     C      0.481930000000     0.992690000000     0.333650000000    -0.027812   
C155     C      0.510110000000     0.015250000000     0.220030000000     0.061034   
C156     C      0.480070000000     0.017990000000     0.172300000000    -0.0293496  
C157     C      0.507930000000     0.986850000000     0.236640000000    -0.0549947  
C158     C      0.482920000000     0.028210000000     0.138230000000    -0.00958062 
C159     C      0.535550000000     0.999980000000     0.136940000000    -0.0100578  
C160     C      0.506120000000     0.043510000000     0.269120000000    -0.0536895  
C161     C      0.672250000000     0.479000000000     0.472430000000    -0.0289067  
C162     C      0.833150000000     0.519060000000     0.519300000000    -0.0288266  
C163     C      0.869880000000     0.470410000000     0.488760000000    -0.0100871  
C164     C      0.866060000000     0.511840000000     0.531310000000    -0.0100999  
C165     C      0.764580000000     0.476480000000     0.516080000000    -0.0535999  
C166     C      0.743340000000     0.519570000000     0.471780000000    -0.0536573  
C167     C      0.786250000000     0.494520000000     0.499450000000     0.0617922  
C168     C      0.836840000000     0.479700000000     0.478770000000    -0.0287132  
C169     C      0.721650000000     0.501690000000     0.488580000000     0.0618185  
C170     C      0.673460000000     0.520320000000     0.511250000000    -0.028584   
C171     C      0.732520000000     0.479990000000     0.510800000000    -0.056113   
C172     C      0.640420000000     0.530990000000     0.502930000000    -0.0102187  
C173     C      0.638890000000     0.487540000000     0.462530000000    -0.0102127  
C174     C      0.775400000000     0.516100000000     0.477100000000    -0.056091   
C175     C      0.171310000000     0.524900000000     0.479510000000    -0.0287532  
C176     C      0.334720000000     0.491050000000     0.520970000000    -0.028697   
C177     C      0.369180000000     0.523720000000     0.472050000000    -0.0101189  
C178     C      0.368430000000     0.481350000000     0.514070000000    -0.0100333  
C179     C      0.273690000000     0.528000000000     0.517250000000    -0.0561378  
C180     C      0.234060000000     0.490460000000     0.481200000000    -0.0561467  
C181     C      0.286540000000     0.506530000000     0.495880000000     0.0618123  
C182     C      0.335410000000     0.531170000000     0.481170000000    -0.0286038  
C183     C      0.221210000000     0.511740000000     0.502760000000     0.0617954  
C184     C      0.174190000000     0.485330000000     0.519770000000    -0.0286204  
C185     C      0.241270000000     0.530490000000     0.520590000000    -0.0536108  
C186     C      0.140620000000     0.491420000000     0.530370000000    -0.0101576  
C187     C      0.137480000000     0.533130000000     0.487800000000    -0.0100839  
C188     C      0.266480000000     0.487960000000     0.477870000000    -0.0535648  
C189     C      0.844000000000     0.530210000000     0.035140000000    -0.0287914  
C190     C      0.683220000000     0.489610000000     0.988860000000    -0.0284784  
C191     C      0.645150000000     0.519960000000     0.036540000000    -0.010384   
C192     C      0.649650000000     0.478450000000     0.994220000000    -0.00881495 
C193     C      0.750040000000     0.489470000000     0.034210000000    -0.0534926  
C194     C      0.774440000000     0.533700000000     0.992760000000    -0.0526596  
C195     C      0.729610000000     0.507300000000     0.015850000000     0.0606193  
C196     C      0.678970000000     0.529140000000     0.029170000000    -0.0287848  
C197     C      0.794880000000     0.515620000000     0.010860000000     0.0606997  
C198     C      0.843110000000     0.491190000000     0.994230000000    -0.0269839  
C199     C      0.782420000000     0.493520000000     0.031830000000    -0.0560595  
C200     C      0.876660000000     0.498570000000     0.984350000000    -0.0100775  
C201     C      0.877750000000     0.539570000000     0.027570000000    -0.0103294  
C202     C      0.742070000000     0.529670000000     0.995160000000    -0.0551946  
C203     C      0.343080000000     0.520500000000     0.981750000000    -0.0276871  
C204     C      0.181340000000     0.484380000000     0.029050000000    -0.0288847  
C205     C      0.149320000000     0.536660000000     0.999240000000    -0.00875162 
C206     C      0.148410000000     0.493440000000     0.039880000000    -0.0103375  
C207     C      0.253030000000     0.522880000000     0.028800000000    -0.0535839  
C208     C      0.272600000000     0.480310000000     0.983260000000    -0.0525026  
C209     C      0.230650000000     0.506230000000     0.011650000000     0.0607142  
C210     C      0.182050000000     0.525580000000     0.990110000000    -0.0283454  
C211     C      0.294970000000     0.497120000000     0.000260000000     0.0600635  
C212     C      0.344740000000     0.479000000000     0.020340000000    -0.0289694  
C213     C      0.284950000000     0.518420000000     0.023260000000    -0.0557747  
C214     C      0.377560000000     0.469020000000     0.010170000000    -0.0118848  
C215     C      0.375890000000     0.512540000000     0.969860000000    -0.0105287  
C216     C      0.240680000000     0.484750000000     0.988830000000    -0.0552738  
C217     C      0.038030000000     0.520890000000     0.839070000000    -0.0286841  
C218     C      0.033940000000     0.490240000000     0.677210000000    -0.0289421  
C219     C      0.974800000000     0.502870000000     0.645590000000    -0.0099696  
C220     C      0.029240000000     0.478360000000     0.643890000000    -0.0096822  
C221     C      0.009520000000     0.522370000000     0.742010000000    -0.0556118  
C222     C      0.014570000000     0.467340000000     0.776860000000    -0.0538151  
C223     C      0.007400000000     0.493160000000     0.726870000000     0.0615728  
C224     C      0.981960000000     0.512630000000     0.679210000000    -0.0280186  
C225     C      0.015840000000     0.496260000000     0.792180000000     0.061517   
C226     C      0.987040000000     0.496570000000     0.840610000000    -0.028042   
C227     C      0.012780000000     0.523890000000     0.774480000000    -0.0555195  
C228     C      0.990510000000     0.487270000000     0.874810000000    -0.00896783 
C229     C      0.044000000000     0.514350000000     0.873740000000    -0.0106523  
C230     C      0.010170000000     0.465810000000     0.744630000000    -0.0539128  
C231     C      0.997570000000     0.482220000000     0.339800000000    -0.0276068  
C232     C      0.994490000000     0.535500000000     0.177250000000    -0.0265224  
C233     C      0.029290000000     0.486080000000     0.145620000000    -0.00938937 
C234     C      0.006020000000     0.540980000000     0.143960000000    -0.0129756  
C235     C      0.980330000000     0.510180000000     0.239880000000    -0.0550372  
C236     C      0.032530000000     0.511860000000     0.279220000000    -0.0553641  
C237     C      0.010530000000     0.512360000000     0.226870000000     0.060608   
C238     C      0.016040000000     0.483130000000     0.178710000000    -0.0302366  
C239     C      0.002250000000     0.512260000000     0.292230000000     0.0597378  
C240     C      0.017330000000     0.535280000000     0.342420000000    -0.0289048  
C241     C      0.976330000000     0.510730000000     0.272250000000    -0.0522057  
C242     C      0.005570000000     0.539580000000     0.375840000000    -0.0125342  
C243     C      0.984100000000     0.484100000000     0.372850000000    -0.0100142  
C244     C      0.036490000000     0.512490000000     0.246840000000    -0.0535283  
C245     C      0.983320000000     0.834470000000     0.536220000000    -0.0272287  
C246     C      0.018920000000     0.671360000000     0.499050000000    -0.0286636  
C247     C      0.985040000000     0.635500000000     0.546080000000    -0.00957875 
C248     C      0.028990000000     0.637880000000     0.506130000000    -0.0103432  
C249     C      0.979990000000     0.731210000000     0.501540000000    -0.0541379  
C250     C      0.017610000000     0.771800000000     0.536430000000    -0.0581057  
C251     C      0.001310000000     0.718950000000     0.523420000000     0.0599048  
C252     C      0.977250000000     0.669390000000     0.537400000000    -0.0282326  
C253     C      0.996480000000     0.784030000000     0.514360000000     0.0636904  
C254     C      0.022900000000     0.830640000000     0.496030000000    -0.0292117  
C255     C      0.977650000000     0.763510000000     0.497160000000    -0.0546567  
C256     C      0.016790000000     0.863980000000     0.484630000000    -0.0108192  
C257     C      0.974940000000     0.867960000000     0.527000000000    -0.0105048  
C258     C      0.019920000000     0.739500000000     0.540840000000    -0.0526145  
C259     C      0.032400000000     0.332770000000     0.522630000000    -0.0288407  
C260     C      0.987800000000     0.171430000000     0.481220000000    -0.028649   
C261     C      0.038690000000     0.136460000000     0.510120000000    -0.0102387  
C262     C      0.994280000000     0.137840000000     0.470710000000    -0.00826627 
C263     C      0.031240000000     0.240250000000     0.479410000000    -0.0535781  
C264     C      0.990160000000     0.263290000000     0.524720000000    -0.0525972  
C265     C      0.013420000000     0.219310000000     0.497190000000     0.0606949  
C266     C      0.030050000000     0.169940000000     0.519030000000    -0.0287399  
C267     C      0.007860000000     0.284230000000     0.506830000000     0.0607533  
C268     C      0.990990000000     0.333090000000     0.484070000000    -0.0267114  
C269     C      0.028560000000     0.272470000000     0.484110000000    -0.0561035  
C270     C      0.981140000000     0.366310000000     0.492610000000    -0.00994616 
C271     C      0.024930000000     0.366190000000     0.533090000000    -0.0102164  
C272     C      0.992880000000     0.231080000000     0.520050000000    -0.0551039  
C273     C      0.835050000000     0.027290000000     0.487690000000    -0.0289178  
C274     C      0.672950000000     0.985700000000     0.528320000000    -0.0286801  
C275     C      0.639540000000     0.035210000000     0.495480000000    -0.0100969  
C276     C      0.639220000000     0.993300000000     0.537570000000    -0.00947865 
C277     C      0.742330000000     0.028030000000     0.529640000000    -0.0537079  
C278     C      0.765950000000     0.984670000000     0.486820000000    -0.0531759  
C279     C      0.721620000000     0.009630000000     0.512200000000     0.061527   
C280     C      0.673110000000     0.025580000000     0.488040000000    -0.0286804  
C281     C      0.786660000000     0.003100000000     0.504220000000     0.0612591  
C282     C      0.835550000000     0.987560000000     0.527950000000    -0.0281959  
C283     C      0.774620000000     0.024860000000     0.525770000000    -0.0560315  
C284     C      0.868940000000     0.977690000000     0.519980000000    -0.00994039 
C285     C      0.868540000000     0.019690000000     0.477660000000    -0.0101315  
C286     C      0.733660000000     0.987840000000     0.490690000000    -0.0558443  
C287     C      0.336060000000     0.981650000000     0.481730000000    -0.0285458  
C288     C      0.173450000000     0.015400000000     0.524040000000    -0.0289556  
C289     C      0.138980000000     0.982490000000     0.475260000000    -0.00995502 
C290     C      0.139740000000     0.024970000000     0.517200000000    -0.0101183  
C291     C      0.234660000000     0.978950000000     0.520230000000    -0.0555061  
C292     C      0.273900000000     0.016930000000     0.484220000000    -0.0568559  
C293     C      0.221610000000     0.000290000000     0.498850000000     0.0612411  
C294     C      0.172870000000     0.975270000000     0.484240000000    -0.0284604  
C295     C      0.286960000000     0.995750000000     0.505760000000     0.0625278  
C296     C      0.334650000000     0.022010000000     0.521380000000    -0.0289278  
C297     C      0.267100000000     0.976790000000     0.523580000000    -0.0540192  
C298     C      0.368550000000     0.015840000000     0.530970000000    -0.010398   
C299     C      0.369960000000     0.973260000000     0.489330000000    -0.0101725  
C300     C      0.241470000000     0.019120000000     0.480900000000    -0.0532818  
C301     C      0.979990000000     0.839270000000     0.016340000000    -0.0290135  
C302     C      0.028300000000     0.678270000000     0.978620000000    -0.0287314  
C303     C      0.999660000000     0.646430000000     0.031620000000    -0.00832488 
C304     C      0.039540000000     0.645440000000     0.987450000000    -0.00863163 
C305     C      0.988630000000     0.737710000000     0.979570000000    -0.0525395  
C306     C      0.022540000000     0.781660000000     0.014180000000    -0.0597009  
C307     C      0.011440000000     0.727540000000     0.001010000000     0.0584067  
C308     C      0.990170000000     0.678980000000     0.020470000000    -0.0283828  
C309     C      0.999710000000     0.791840000000     0.992760000000     0.065072   
C310     C      0.020100000000     0.842000000000     0.976280000000    -0.0288996  
C311     C      0.982930000000     0.769640000000     0.975520000000    -0.055524   
C312     C      0.010120000000     0.874980000000     0.966800000000    -0.0119696  
C313     C      0.968270000000     0.872210000000     0.008690000000    -0.0115718  
C314     C      0.028290000000     0.749750000000     0.018170000000    -0.0517402  
C315     C      0.984030000000     0.179430000000     0.985820000000    -0.027161   
C316     C      0.028090000000     0.340100000000     0.027780000000    -0.0295695  
C317     C      0.994790000000     0.375250000000     0.979780000000    -0.00815721 
C318     C      0.038330000000     0.373550000000     0.020340000000    -0.0102042  
C319     C      0.988880000000     0.280260000000     0.025660000000    -0.0549226  
C320     C      0.023330000000     0.239100000000     0.988280000000    -0.0549974  
C321     C      0.010230000000     0.292210000000     0.003650000000     0.0590424  
C322     C      0.986710000000     0.341680000000     0.989170000000    -0.0274444  
C323     C      0.001930000000     0.227150000000     0.010250000000     0.0589444  
C324     C      0.025090000000     0.177500000000     0.024720000000    -0.0294126  
C325     C      0.984830000000     0.247990000000     0.028840000000    -0.0523014  
C326     C      0.016710000000     0.143980000000     0.034020000000    -0.0107959  
C327     C      0.973470000000     0.146060000000     0.993100000000    -0.00892852 
C328     C      0.027370000000     0.271380000000     0.985090000000    -0.0525306  
C329     C      0.667330000000     0.979450000000     0.016070000000    -0.0290411  
C330     C      0.828880000000     0.026520000000     0.979660000000    -0.0285658  
C331     C      0.861900000000     0.995470000000     0.030540000000    -0.00973707 
C332     C      0.861830000000     0.037420000000     0.988480000000    -0.00874059 
C333     C      0.757890000000     0.025550000000     0.018940000000    -0.0522835  
C334     C      0.737600000000     0.981000000000     0.975660000000    -0.0547615  
C335     C      0.780000000000     0.008500000000     0.001820000000     0.0594418  
C336     C      0.829010000000     0.986480000000     0.019730000000    -0.0286825  
C337     C      0.715490000000     0.997950000000     0.992880000000     0.0638345  
C338     C      0.665880000000     0.019070000000     0.975470000000    -0.0287132  
C339     C      0.725890000000     0.020420000000     0.014570000000    -0.0584678  
C340     C      0.632750000000     0.009630000000     0.965740000000    -0.0110174  
C341     C      0.634240000000     0.968320000000     0.008140000000    -0.0118387  
C342     C      0.769600000000     0.986160000000     0.980000000000    -0.0536808  
C343     C      0.329850000000     0.023430000000     0.026170000000    -0.0294659  
C344     C      0.166770000000     0.988650000000     0.983570000000    -0.027986   
C345     C      0.132970000000     0.019720000000     0.033940000000    -0.0104661  
C346     C      0.132940000000     0.979170000000     0.990380000000    -0.00866604 
C347     C      0.228100000000     0.025010000000     0.987780000000    -0.0551624  
C348     C      0.268030000000     0.987130000000     0.023140000000    -0.0554999  
C349     C      0.215380000000     0.003010000000     0.008700000000     0.0600119  
C350     C      0.166790000000     0.027240000000     0.024950000000    -0.0290327  
C351     C      0.280740000000     0.008960000000     0.002050000000     0.0596477  
C352     C      0.328830000000     0.983740000000     0.985860000000    -0.0275308  
C353     C      0.260520000000     0.027850000000     0.984540000000    -0.0524526  
C354     C      0.362590000000     0.990590000000     0.976210000000    -0.00937257 
C355     C      0.363690000000     0.032350000000     0.018620000000    -0.010208   
C356     C      0.235600000000     0.984230000000     0.026330000000    -0.0531639  
C357     C      0.017690000000     0.993430000000     0.833620000000    -0.0279695  
C358     C      0.991140000000     0.987810000000     0.673290000000    -0.0274831  
C359     C      0.012220000000     0.040710000000     0.635830000000    -0.0117197  
C360     C      0.980930000000     0.989850000000     0.639200000000    -0.00891337 
C361     C      0.023500000000     0.017870000000     0.736710000000    -0.0561994  
C362     C      0.966500000000     0.016110000000     0.768650000000    -0.0539031  
C363     C      0.995230000000     0.019340000000     0.719780000000     0.0625995  
C364     C      0.019680000000     0.036500000000     0.670540000000    -0.0291055  
C365     C      0.994490000000     0.014770000000     0.785610000000     0.0627566  
C366     C      0.989650000000     0.042490000000     0.834740000000    -0.0275902  
C367     C      0.023130000000     0.016590000000     0.769340000000    -0.0563287  
C368     C      0.978600000000     0.037370000000     0.868320000000    -0.00971453 
C369     C      0.009190000000     0.985880000000     0.867440000000    -0.0124002  
C370     C      0.966870000000     0.018710000000     0.736190000000    -0.053724   
C371     C      0.016350000000     0.971380000000     0.334180000000    -0.0288235  
C372     C      0.988790000000     0.972900000000     0.170530000000    -0.0272776  
C373     C      0.004980000000     0.031520000000     0.139590000000    -0.0123592  
C374     C      0.977610000000     0.978330000000     0.137080000000    -0.00953069 
C375     C      0.020430000000     0.997260000000     0.236590000000    -0.0563917  
C376     C      0.964220000000     0.992400000000     0.269560000000    -0.0537128  
C377     C      0.991750000000     0.999140000000     0.220420000000     0.0631805  
C378     C      0.013770000000     0.023540000000     0.173260000000    -0.0288166  
C379     C      0.992590000000     0.991560000000     0.285910000000     0.0629242  
C380     C      0.989810000000     0.021300000000     0.333680000000    -0.0276732  
C381     C      0.020820000000     0.994460000000     0.269120000000    -0.0562692  
C382     C      0.979600000000     0.018170000000     0.367660000000    -0.0101026  
C383     C      0.008830000000     0.965990000000     0.368730000000    -0.012438   
C384     C      0.963790000000     0.996430000000     0.237260000000    -0.0538761  
H1       H      0.516550000000     0.541990000000     0.719770000000     0.0410564  
H2       H      0.559140000000     0.472330000000     0.817360000000     0.0352482  
H3       H      0.468630000000     0.512850000000     0.815790000000     0.0353549  
H4       H      0.494690000000     0.455160000000     0.632140000000     0.0426169  
H5       H      0.533730000000     0.453040000000     0.863670000000     0.0425617  
H6       H      0.561490000000     0.515480000000     0.676780000000     0.0352893  
H7       H      0.471890000000     0.473110000000     0.680270000000     0.0352426  
H8       H      0.553010000000     0.527560000000     0.619410000000     0.0450305  
H9       H      0.472520000000     0.523320000000     0.873680000000     0.0454482  
H10      H      0.515490000000     0.541290000000     0.776480000000     0.0410958  
H11      H      0.562280000000     0.481510000000     0.875320000000     0.0435963  
H12      H      0.518850000000     0.441110000000     0.718290000000     0.0454794  
H13      H      0.553690000000     0.512650000000     0.828310000000     0.0391908  
H14      H      0.464760000000     0.483120000000     0.622990000000     0.0437882  
H15      H      0.469380000000     0.482940000000     0.863120000000     0.0411759  
H16      H      0.526930000000     0.538060000000     0.667900000000     0.0372651  
H17      H      0.475880000000     0.513710000000     0.669760000000     0.0391503  
H18      H      0.515100000000     0.440380000000     0.775520000000     0.0454888  
H19      H      0.502000000000     0.535880000000     0.827600000000     0.0375762  
H20      H      0.558420000000     0.487110000000     0.628660000000     0.0412258  
H21      H      0.442490000000     0.506750000000     0.275370000000     0.0453792  
H22      H      0.516570000000     0.558040000000     0.178200000000     0.0352069  
H23      H      0.474110000000     0.468390000000     0.178220000000     0.0351693  
H24      H      0.486320000000     0.458640000000     0.361730000000     0.0409504  
H25      H      0.487650000000     0.556330000000     0.130140000000     0.0404889  
H26      H      0.474230000000     0.549230000000     0.317330000000     0.0350447  
H27      H      0.515830000000     0.459260000000     0.314180000000     0.0352618  
H28      H      0.482760000000     0.551370000000     0.375120000000     0.0438705  
H29      H      0.483190000000     0.463590000000     0.120910000000     0.0443877  
H30      H      0.442730000000     0.513480000000     0.218430000000     0.0452937  
H31      H      0.528210000000     0.552220000000     0.120500000000     0.0449464  
H32      H      0.543470000000     0.506710000000     0.275450000000     0.0410818  
H33      H      0.539260000000     0.523960000000     0.167820000000     0.037649   
H34      H      0.526640000000     0.462640000000     0.372290000000     0.0450826  
H35      H      0.456170000000     0.494020000000     0.131330000000     0.0418501  
H36      H      0.514580000000     0.543960000000     0.328390000000     0.0392241  
H37      H      0.538500000000     0.492720000000     0.326440000000     0.0374013  
H38      H      0.543670000000     0.510690000000     0.218880000000     0.0411396  
H39      H      0.514710000000     0.472630000000     0.167630000000     0.0395365  
H40      H      0.455010000000     0.522360000000     0.362840000000     0.0424117  
H41      H      0.471640000000     0.778340000000     0.535730000000     0.0457143  
H42      H      0.546230000000     0.684920000000     0.532530000000     0.0354371  
H43      H      0.477220000000     0.686330000000     0.461560000000     0.0353892  
H44      H      0.511780000000     0.869340000000     0.545370000000     0.042498   
H45      H      0.555690000000     0.637950000000     0.503500000000     0.0418339  
H46      H      0.472070000000     0.822380000000     0.464810000000     0.0354509  
H47      H      0.541360000000     0.822970000000     0.535460000000     0.0353941  
H48      H      0.479810000000     0.880750000000     0.457420000000     0.0440936  
H49      H      0.469180000000     0.628510000000     0.468150000000     0.0449853  
H50      H      0.475910000000     0.721160000000     0.532850000000     0.0415386  
H51      H      0.537490000000     0.626830000000     0.539520000000     0.0442766  
H52      H      0.542820000000     0.787260000000     0.464950000000     0.0414938  
H53      H      0.506490000000     0.673990000000     0.541460000000     0.0377807  
H54      H      0.548090000000     0.881100000000     0.528070000000     0.0445475  
H55      H      0.506340000000     0.639360000000     0.452050000000     0.0419841  
H56      H      0.511530000000     0.834210000000     0.455850000000     0.0374785  
H57      H      0.551020000000     0.834770000000     0.496220000000     0.0376106  
H58      H      0.547090000000     0.730060000000     0.462050000000     0.0455357  
H59      H      0.466930000000     0.674550000000     0.500660000000     0.0379817  
H60      H      0.461130000000     0.869280000000     0.493050000000     0.0423005  
H61      H      0.539500000000     0.233010000000     0.541070000000     0.0455868  
H62      H      0.462570000000     0.324000000000     0.532350000000     0.0355268  
H63      H      0.532020000000     0.321320000000     0.461810000000     0.0355078  
H64      H      0.502000000000     0.139930000000     0.553180000000     0.0415982  
H65      H      0.452610000000     0.369280000000     0.500610000000     0.0415158  
H66      H      0.541540000000     0.186140000000     0.473300000000     0.0355178  
H67      H      0.470770000000     0.185480000000     0.542580000000     0.0354946  
H68      H      0.536460000000     0.127880000000     0.467410000000     0.044877   
H69      H      0.538690000000     0.379530000000     0.465910000000     0.0450079  
H70      H      0.534120000000     0.289840000000     0.534870000000     0.0417153  
H71      H      0.469250000000     0.382300000000     0.536790000000     0.0448453  
H72      H      0.468690000000     0.218640000000     0.470800000000     0.0416503  
H73      H      0.501950000000     0.336320000000     0.541150000000     0.0382147  
H74      H      0.465540000000     0.127180000000     0.536840000000     0.0449718  
H75      H      0.501570000000     0.367260000000     0.450680000000     0.0415168  
H76      H      0.502640000000     0.173090000000     0.463500000000     0.0382987  
H77      H      0.461810000000     0.172680000000     0.503480000000     0.0381823  
H78      H      0.463270000000     0.275470000000     0.464650000000     0.045575   
H79      H      0.542010000000     0.334840000000     0.500420000000     0.0382983  
H80      H      0.552020000000     0.140420000000     0.504220000000     0.0414869  
H81      H      0.530500000000     0.791660000000     0.970130000000     0.0415977  
H82      H      0.547510000000     0.684830000000     0.022740000000     0.0353223  
H83      H      0.474010000000     0.682800000000     0.956310000000     0.0356025  
H84      H      0.495670000000     0.862770000000     0.058700000000     0.0405334  
H85      H      0.558610000000     0.641760000000     0.987910000000     0.0414914  
H86      H      0.455580000000     0.819730000000     0.978650000000     0.0357654  
H87      H      0.529240000000     0.819330000000     0.044960000000     0.035524   
H88      H      0.456780000000     0.878070000000     0.976820000000     0.0455531  
H89      H      0.472860000000     0.624020000000     0.958960000000     0.0448672  
H90      H      0.539080000000     0.735920000000     0.959270000000     0.0457468  
H91      H      0.547540000000     0.626530000000     0.025320000000     0.045854   
H92      H      0.463580000000     0.767400000000     0.041450000000     0.0450104  
H93      H      0.510120000000     0.668630000000     0.033680000000     0.0389202  
H94      H      0.531620000000     0.878000000000     0.043250000000     0.0449455  
H95      H      0.508300000000     0.639860000000     0.942980000000     0.0409103  
H96      H      0.493280000000     0.835230000000     0.967730000000     0.0393496  
H97      H      0.536440000000     0.834830000000     0.006480000000     0.0386272  
H98      H      0.472150000000     0.711650000000     0.030560000000     0.0418989  
H99      H      0.467150000000     0.667660000000     0.994990000000     0.0389048  
H100     H      0.445710000000     0.862630000000     0.014150000000     0.0396279  
H101     H      0.544320000000     0.215300000000     0.033940000000     0.0418219  
H102     H      0.554840000000     0.319690000000     0.969320000000     0.0356957  
H103     H      0.486890000000     0.320890000000     0.041360000000     0.0354596  
H104     H      0.505690000000     0.136610000000     0.953360000000     0.041896   
H105     H      0.566550000000     0.365520000000     0.999950000000     0.0413558  
H106     H      0.470380000000     0.185700000000     0.033640000000     0.0354544  
H107     H      0.539250000000     0.180720000000     0.962700000000     0.035334   
H108     H      0.473290000000     0.127110000000     0.040450000000     0.0446145  
H109     H      0.482260000000     0.379010000000     0.036600000000     0.0454396  
H110     H      0.552870000000     0.271950000000     0.038270000000     0.0451028  
H111     H      0.549960000000     0.378160000000     0.963610000000     0.0447507  
H112     H      0.473360000000     0.231390000000     0.964240000000     0.0459993  
H113     H      0.515720000000     0.332960000000     0.960860000000     0.0385702  
H114     H      0.541800000000     0.122330000000     0.969150000000     0.0451769  
H115     H      0.519680000000     0.365900000000     0.050310000000     0.0410067  
H116     H      0.508880000000     0.171080000000     0.042640000000     0.0380094  
H117     H      0.548490000000     0.168050000000     0.001760000000     0.0371967  
H118     H      0.481880000000     0.288020000000     0.968590000000     0.0415438  
H119     H      0.476350000000     0.333900000000     0.002720000000     0.0384345  
H120     H      0.456780000000     0.139890000000     0.004170000000     0.0415443  
H121     H      0.538220000000     0.996090000000     0.782550000000     0.0411864  
H122     H      0.469810000000     0.037390000000     0.685450000000     0.0351474  
H123     H      0.514480000000     0.948860000000     0.683240000000     0.0352318  
H124     H      0.449250000000     0.979120000000     0.868920000000     0.0424555  
H125     H      0.452890000000     0.013490000000     0.637480000000     0.0424663  
H126     H      0.509030000000     0.043600000000     0.820620000000     0.0352475  
H127     H      0.469090000000     0.952860000000     0.823270000000     0.0351739  
H128     H      0.519090000000     0.040700000000     0.878620000000     0.0453407  
H129     H      0.526780000000     0.956960000000     0.625940000000     0.0450878  
H130     H      0.539510000000     0.994020000000     0.725940000000     0.041099   
H131     H      0.480020000000     0.044180000000     0.628280000000     0.0438077  
H132     H      0.437270000000     0.996170000000     0.780590000000     0.0455352  
H133     H      0.510620000000     0.034290000000     0.675330000000     0.0392236  
H134     H      0.477580000000     0.950690000000     0.881270000000     0.0435251  
H135     H      0.486330000000     0.950870000000     0.634900000000     0.0410631  
H136     H      0.532250000000     0.010600000000     0.833150000000     0.0374675  
H137     H      0.509300000000     0.958740000000     0.834530000000     0.0392609  
H138     H      0.438580000000     0.991270000000     0.723470000000     0.0454914  
H139     H      0.536260000000     0.983890000000     0.674160000000     0.0374483  
H140     H      0.478720000000     0.043250000000     0.867730000000     0.0408871  
H141     H      0.505210000000     0.065620000000     0.281410000000     0.0452894  
H142     H      0.553630000000     0.990520000000     0.183120000000     0.0353225  
H143     H      0.465160000000     0.035380000000     0.184680000000     0.0352209  
H144     H      0.458590000000     0.020710000000     0.368520000000     0.0411109  
H145     H      0.552420000000     0.019710000000     0.135320000000     0.0404913  
H146     H      0.548120000000     0.035070000000     0.322790000000     0.0351483  
H147     H      0.459220000000     0.991100000000     0.321030000000     0.0351581  
H148     H      0.551410000000     0.026390000000     0.380630000000     0.043584   
H149     H      0.459390000000     0.026610000000     0.127220000000     0.0439599  
H150     H      0.510500000000     0.065500000000     0.224320000000     0.0452764  
H151     H      0.546590000000     0.979460000000     0.125410000000     0.0449838  
H152     H      0.505360000000     0.964690000000     0.281280000000     0.0409637  
H153     H      0.518740000000     0.968970000000     0.173010000000     0.0375089  
H154     H      0.463680000000     0.980520000000     0.379030000000     0.0455267  
H155     H      0.490250000000     0.053150000000     0.137520000000     0.0422968  
H156     H      0.544120000000     0.994610000000     0.333830000000     0.0396152  
H157     H      0.493480000000     0.969370000000     0.332810000000     0.0373076  
H158     H      0.507880000000     0.964610000000     0.224660000000     0.0410227  
H159     H      0.468260000000     0.994800000000     0.173730000000     0.0397708  
H160     H      0.521620000000     0.053510000000     0.368850000000     0.0424511  
H161     H      0.791670000000     0.530370000000     0.463990000000     0.0416533  
H162     H      0.684630000000     0.468910000000     0.451910000000     0.0355506  
H163     H      0.686800000000     0.540970000000     0.519850000000     0.0354896  
H164     H      0.868480000000     0.448640000000     0.502900000000     0.0413347  
H165     H      0.640060000000     0.501750000000     0.440820000000     0.041021   
H166     H      0.818830000000     0.527670000000     0.539230000000     0.0355657  
H167     H      0.825260000000     0.458870000000     0.468320000000     0.0355561  
H168     H      0.877290000000     0.534190000000     0.538450000000     0.0448781  
H169     H      0.628660000000     0.538840000000     0.524710000000     0.0455626  
H170     H      0.735300000000     0.536480000000     0.454760000000     0.0454363  
H171     H      0.626050000000     0.465630000000     0.456950000000     0.0448882  
H172     H      0.772610000000     0.459840000000     0.533370000000     0.0455918  
H173     H      0.671200000000     0.460790000000     0.490990000000     0.0385028  
H174     H      0.883660000000     0.464940000000     0.467420000000     0.0452021  
H175     H      0.642070000000     0.551540000000     0.487100000000     0.0408298  
H176     H      0.834480000000     0.538040000000     0.501540000000     0.038449   
H177     H      0.838310000000     0.498210000000     0.460540000000     0.038402   
H178     H      0.716250000000     0.466070000000     0.524270000000     0.0417665  
H179     H      0.672240000000     0.502820000000     0.530470000000     0.0389333  
H180     H      0.864090000000     0.496930000000     0.552490000000     0.0413971  
H181     H      0.276060000000     0.471330000000     0.461360000000     0.0455728  
H182     H      0.182760000000     0.546150000000     0.469760000000     0.0354236  
H183     H      0.187840000000     0.476810000000     0.540210000000     0.0354996  
H184     H      0.369000000000     0.509750000000     0.450150000000     0.0418944  
H185     H      0.137410000000     0.555170000000     0.501580000000     0.041665   
H186     H      0.321900000000     0.470240000000     0.529960000000     0.0355193  
H187     H      0.323090000000     0.540500000000     0.460250000000     0.0354661  
H188     H      0.380160000000     0.475830000000     0.536590000000     0.0447706  
H189     H      0.129690000000     0.468600000000     0.536410000000     0.0448945  
H190     H      0.219060000000     0.475670000000     0.467190000000     0.0415635  
H191     H      0.124480000000     0.537720000000     0.465780000000     0.0445034  
H192     H      0.288690000000     0.542590000000     0.531470000000     0.0415583  
H193     H      0.171400000000     0.506480000000     0.461130000000     0.0379349  
H194     H      0.381430000000     0.546100000000     0.466930000000     0.0446643  
H195     H      0.141200000000     0.505770000000     0.552020000000     0.0416831  
H196     H      0.334660000000     0.509260000000     0.539560000000     0.0380913  
H197     H      0.335340000000     0.549690000000     0.499460000000     0.037927   
H198     H      0.231700000000     0.546910000000     0.537300000000     0.0455312  
H199     H      0.174230000000     0.466600000000     0.501700000000     0.0380917  
H200     H      0.368100000000     0.459510000000     0.499970000000     0.0417388  
H201     H      0.726820000000     0.543720000000     0.980680000000     0.0417209  
H202     H      0.831730000000     0.550970000000     0.044950000000     0.0353793  
H203     H      0.830130000000     0.482580000000     0.973400000000     0.0354316  
H204     H      0.645030000000     0.505050000000     0.057810000000     0.0412989  
H205     H      0.877380000000     0.561710000000     0.013950000000     0.0414105  
H206     H      0.697280000000     0.469440000000     0.980310000000     0.0358251  
H207     H      0.689860000000     0.538550000000     0.050830000000     0.0354173  
H208     H      0.639350000000     0.472110000000     0.971250000000     0.0450842  
H209     H      0.888350000000     0.476260000000     0.977870000000     0.0452885  
H210     H      0.783690000000     0.550720000000     0.976470000000     0.0455555  
H211     H      0.890200000000     0.544390000000     0.049860000000     0.0445616  
H212     H      0.740810000000     0.472150000000     0.050190000000     0.0453349  
H213     H      0.844150000000     0.511550000000     0.053290000000     0.0380222  
H214     H      0.631780000000     0.541580000000     0.042040000000     0.0448704  
H215     H      0.875970000000     0.513480000000     0.963080000000     0.0416241  
H216     H      0.683280000000     0.507960000000     0.970400000000     0.0387321  
H217     H      0.679000000000     0.548030000000     0.011270000000     0.0380747  
H218     H      0.797690000000     0.479190000000     0.046020000000     0.0415143  
H219     H      0.843380000000     0.472150000000     0.011970000000     0.0374672  
H220     H      0.650280000000     0.456870000000     0.008690000000     0.0402979  
H221     H      0.223870000000     0.471620000000     0.975220000000     0.0417898  
H222     H      0.329390000000     0.530540000000     0.962050000000     0.0355039  
H223     H      0.332270000000     0.458060000000     0.029500000000     0.0353868  
H224     H      0.151610000000     0.557290000000     0.014870000000     0.0399881  
H225     H      0.373640000000     0.498330000000     0.948240000000     0.0408639  
H226     H      0.194130000000     0.474120000000     0.049240000000     0.0355005  
H227     H      0.195420000000     0.546040000000     0.981130000000     0.0357754  
H228     H      0.135460000000     0.471730000000     0.045990000000     0.0449348  
H229     H      0.390760000000     0.461480000000     0.031240000000     0.0454659  
H230     H      0.279960000000     0.463830000000     0.965530000000     0.0453676  
H231     H      0.387940000000     0.534690000000     0.963510000000     0.0452299  
H232     H      0.245660000000     0.539520000000     0.046390000000     0.0453668  
H233     H      0.344930000000     0.538610000000     0.000350000000     0.0378771  
H234     H      0.137030000000     0.544490000000     0.977740000000     0.0453808  
H235     H      0.375480000000     0.448410000000     0.994470000000     0.0418469  
H236     H      0.179510000000     0.466160000000     0.010550000000     0.0383319  
H237     H      0.180120000000     0.508070000000     0.970950000000     0.0389687  
H238     H      0.301750000000     0.531660000000     0.036770000000     0.0415466  
H239     H      0.346670000000     0.496400000000     0.039590000000     0.0386962  
H240     H      0.150430000000     0.507740000000     0.061470000000     0.0410437  
H241     H      0.009010000000     0.443180000000     0.733340000000     0.045345   
H242     H      0.060910000000     0.521520000000     0.826690000000     0.035264   
H243     H      0.971190000000     0.479360000000     0.829180000000     0.0353666  
H244     H      0.959450000000     0.481880000000     0.646140000000     0.0410314  
H245     H      0.061070000000     0.494820000000     0.875680000000     0.0413311  
H246     H      0.050840000000     0.474390000000     0.689090000000     0.0351896  
H247     H      0.959650000000     0.513300000000     0.692580000000     0.0354633  
H248     H      0.051730000000     0.480950000000     0.631060000000     0.0441804  
H249     H      0.967450000000     0.490360000000     0.886490000000     0.0438962  
H250     H      0.016460000000     0.445870000000     0.790130000000     0.0454081  
H251     H      0.055160000000     0.535320000000     0.884320000000     0.0447057  
H252     H      0.008190000000     0.543990000000     0.729010000000     0.0409004  
H253     H      0.026880000000     0.544320000000     0.836880000000     0.0367793  
H254     H      0.961340000000     0.521950000000     0.634170000000     0.0452881  
H255     H      0.996590000000     0.462020000000     0.876090000000     0.0431568  
H256     H      0.044230000000     0.514180000000     0.676820000000     0.0392533  
H257     H      0.992090000000     0.536610000000     0.678880000000     0.0379075  
H258     H      0.012980000000     0.546620000000     0.785530000000     0.040866   
H259     H      0.976000000000     0.520110000000     0.838770000000     0.0392127  
H260     H      0.023520000000     0.453010000000     0.644730000000     0.0420962  
H261     H      0.059910000000     0.513200000000     0.237210000000     0.0451106  
H262     H      0.983010000000     0.465550000000     0.326090000000     0.0348659  
H263     H      0.017420000000     0.558470000000     0.330630000000     0.0354619  
H264     H      0.054720000000     0.491350000000     0.147190000000     0.0423091  
H265     H      0.958590000000     0.488940000000     0.371270000000     0.0420606  
H266     H      0.993560000000     0.558420000000     0.189540000000     0.035563   
H267     H      0.031170000000     0.466700000000     0.192070000000     0.0351349  
H268     H      0.987900000000     0.554530000000     0.131160000000     0.04654    
H269     H      0.023060000000     0.553610000000     0.388980000000     0.0456097  
H270     H      0.053120000000     0.511660000000     0.293870000000     0.0413648  
H271     H      0.987060000000     0.460910000000     0.384260000000     0.0442404  
H272     H      0.959800000000     0.508700000000     0.225210000000     0.0414224  
H273     H      0.021920000000     0.472950000000     0.340600000000     0.0384298  
H274     H      0.026730000000     0.463150000000     0.133610000000     0.0432245  
H275     H      0.983510000000     0.553350000000     0.375150000000     0.041561   
H276     H      0.970350000000     0.525800000000     0.176120000000     0.037634   
H277     H      0.992000000000     0.473100000000     0.177830000000     0.0399589  
H278     H      0.952910000000     0.510020000000     0.281880000000     0.0447654  
H279     H      0.041810000000     0.526440000000     0.343400000000     0.0380249  
H280     H      0.027450000000     0.555700000000     0.144920000000     0.0410952  
H281     H      0.036560000000     0.730380000000     0.557590000000     0.0450016  
H282     H      0.962120000000     0.823220000000     0.546320000000     0.0353091  
H283     H      0.031410000000     0.816510000000     0.475920000000     0.0353586  
H284     H      0.998790000000     0.635530000000     0.568120000000     0.0414482  
H285     H      0.952950000000     0.867530000000     0.513130000000     0.0419769  
H286     H      0.039860000000     0.684640000000     0.491070000000     0.0354057  
H287     H      0.967140000000     0.681160000000     0.558270000000     0.0355972  
H288     H      0.036630000000     0.626820000000     0.483910000000     0.0454938  
H289     H      0.039600000000     0.874870000000     0.478440000000     0.044623   
H290     H      0.032460000000     0.787160000000     0.549980000000     0.0418525  
H291     H      0.970140000000     0.881460000000     0.548670000000     0.0451278  
H292     H      0.965540000000     0.715850000000     0.487580000000     0.0414773  
H293     H      0.001790000000     0.834980000000     0.554560000000     0.0369995  
H294     H      0.962800000000     0.622810000000     0.550680000000     0.0446048  
H295     H      0.002530000000     0.862880000000     0.462950000000     0.0415118  
H296     H      0.001510000000     0.671200000000     0.479690000000     0.038468   
H297     H      0.959230000000     0.669430000000     0.518620000000     0.0383432  
H298     H      0.961340000000     0.772610000000     0.480080000000     0.0460472  
H299     H      0.041670000000     0.831030000000     0.514070000000     0.037972   
H300     H      0.049600000000     0.638550000000     0.521970000000     0.0409583  
H301     H      0.978970000000     0.215400000000     0.534210000000     0.0417721  
H302     H      0.042420000000     0.319860000000     0.542860000000     0.0354292  
H303     H      0.970040000000     0.320370000000     0.475280000000     0.0353838  
H304     H      0.059000000000     0.137140000000     0.493920000000     0.0408442  
H305     H      0.011530000000     0.365150000000     0.555320000000     0.0415314  
H306     H      0.977870000000     0.184590000000     0.461100000000     0.0357987  
H307     H      0.051590000000     0.182040000000     0.527260000000     0.0353883  
H308     H      0.971550000000     0.126300000000     0.465520000000     0.0446549  
H309     H      0.974390000000     0.378670000000     0.470780000000     0.0454072  
H310     H      0.974120000000     0.272040000000     0.542230000000     0.0456821  
H311     H      0.047320000000     0.378490000000     0.538010000000     0.0444649  
H312     H      0.047210000000     0.231510000000     0.461830000000     0.0452582  
H313     H      0.050400000000     0.333480000000     0.503840000000     0.0379857  
H314     H      0.046260000000     0.123980000000     0.531600000000     0.0452485  
H315     H      0.960000000000     0.365130000000     0.507700000000     0.0417722  
H316     H      0.970020000000     0.171120000000     0.500220000000     0.0387408  
H317     H      0.012960000000     0.169460000000     0.538660000000     0.0383894  
H318     H      0.042450000000     0.288170000000     0.469950000000     0.0414534  
H319     H      0.008600000000     0.334000000000     0.464930000000     0.0372479  
H320     H      0.007980000000     0.138540000000     0.448660000000     0.0398007  
H321     H      0.718150000000     0.973400000000     0.476880000000     0.0417647  
H322     H      0.822130000000     0.036360000000     0.467020000000     0.0355563  
H323     H      0.822970000000     0.966880000000     0.537540000000     0.0354997  
H324     H      0.640100000000     0.056530000000     0.510340000000     0.0409671  
H325     H      0.867690000000     0.005320000000     0.456040000000     0.0416068  
H326     H      0.685430000000     0.976780000000     0.549310000000     0.0355954  
H327     H      0.685770000000     0.046390000000     0.478860000000     0.0355127  
H328     H      0.627170000000     0.971100000000     0.543770000000     0.0448415  
H329     H      0.881290000000     0.972030000000     0.542120000000     0.0451852  
H330     H      0.774920000000     0.967810000000     0.470220000000     0.0456152  
H331     H      0.880630000000     0.041960000000     0.471800000000     0.0448019  
H332     H      0.733360000000     0.044920000000     0.546210000000     0.0454582  
H333     H      0.835560000000     0.046050000000     0.505730000000     0.0381777  
H334     H      0.627720000000     0.041530000000     0.473230000000     0.0453433  
H335     H      0.868040000000     0.955920000000     0.505810000000     0.0416932  
H336     H      0.672820000000     0.966840000000     0.510380000000     0.0385397  
H337     H      0.672870000000     0.007340000000     0.469470000000     0.0385838  
H338     H      0.790150000000     0.039320000000     0.539540000000     0.0415749  
H339     H      0.836180000000     0.005950000000     0.546350000000     0.0379745  
H340     H      0.639600000000     0.008250000000     0.558800000000     0.0407714  
H341     H      0.231720000000     0.035660000000     0.464410000000     0.0454293  
H342     H      0.324180000000     0.960310000000     0.472710000000     0.0354611  
H343     H      0.321700000000     0.030880000000     0.542120000000     0.0354772  
H344     H      0.138960000000     0.996410000000     0.453340000000     0.0419827  
H345     H      0.370140000000     0.951800000000     0.503990000000     0.0415702  
H346     H      0.186200000000     0.036260000000     0.533030000000     0.0354738  
H347     H      0.185160000000     0.966050000000     0.463260000000     0.0355044  
H348     H      0.128100000000     0.030540000000     0.539740000000     0.0449998  
H349     H      0.379810000000     0.038630000000     0.536470000000     0.0449186  
H350     H      0.288740000000     0.031790000000     0.470120000000     0.0417053  
H351     H      0.382170000000     0.967610000000     0.467110000000     0.0450475  
H352     H      0.219810000000     0.964190000000     0.534420000000     0.0414704  
H353     H      0.335680000000     0.999710000000     0.462990000000     0.0383783  
H354     H      0.126810000000     0.960050000000     0.470280000000     0.0445087  
H355     H      0.368580000000     0.001640000000     0.552710000000     0.0413982  
H356     H      0.173620000000     0.997160000000     0.542620000000     0.0384425  
H357     H      0.173140000000     0.956740000000     0.502510000000     0.0379169  
H358     H      0.276850000000     0.960370000000     0.540190000000     0.0456622  
H359     H      0.334170000000     0.040500000000     0.503070000000     0.038179   
H360     H      0.139970000000     0.046750000000     0.503010000000     0.0416923  
H361     H      0.045770000000     0.742240000000     0.034860000000     0.0448333  
H362     H      0.959910000000     0.825330000000     0.025310000000     0.0353628  
H363     H      0.029980000000     0.830060000000     0.955400000000     0.0353009  
H364     H      0.015330000000     0.648920000000     0.052200000000     0.040181   
H365     H      0.947270000000     0.870230000000     0.993490000000     0.0416671  
H366     H      0.048200000000     0.691130000000     0.967850000000     0.0356841  
H367     H      0.981380000000     0.692430000000     0.040930000000     0.0356624  
H368     H      0.044720000000     0.632320000000     0.965640000000     0.0445213  
H369     H      0.031390000000     0.888350000000     0.960080000000     0.0455927  
H370     H      0.035770000000     0.798330000000     0.027850000000     0.0421848  
H371     H      0.960900000000     0.883700000000     0.030790000000     0.04526    
H372     H      0.975130000000     0.721020000000     0.966190000000     0.0412495  
H373     H      0.997940000000     0.840740000000     0.035130000000     0.039011   
H374     H      0.978220000000     0.633990000000     0.039530000000     0.0449702  
H375     H      0.994900000000     0.873320000000     0.945810000000     0.0415558  
H376     H      0.009320000000     0.676310000000     0.960910000000     0.038057   
H377     H      0.970730000000     0.676870000000     0.003260000000     0.0384346  
H378     H      0.965270000000     0.777140000000     0.959010000000     0.0460975  
H379     H      0.038830000000     0.843620000000     0.994290000000     0.0389412  
H380     H      0.061800000000     0.647560000000     0.000730000000     0.0403081  
H381     H      0.043890000000     0.280240000000     0.968090000000     0.0453253  
H382     H      0.963390000000     0.192870000000     0.977360000000     0.0357127  
H383     H      0.035230000000     0.189500000000     0.045450000000     0.0354168  
H384     H      0.008570000000     0.374630000000     0.957770000000     0.0404119  
H385     H      0.952260000000     0.147110000000     0.008080000000     0.0407296  
H386     H      0.048900000000     0.326840000000     0.036080000000     0.0354962  
H387     H      0.976530000000     0.329590000000     0.968520000000     0.035784   
H388     H      0.045340000000     0.385100000000     0.042530000000     0.0449082  
H389     H      0.038760000000     0.131100000000     0.039010000000     0.0447016  
H390     H      0.036820000000     0.223510000000     0.973630000000     0.041459   
H391     H      0.966670000000     0.134570000000     0.970810000000     0.0450408  
H392     H      0.975380000000     0.295840000000     0.040320000000     0.04151    
H393     H      0.001740000000     0.178860000000     0.966750000000     0.037504   
H394     H      0.972630000000     0.387930000000     0.974820000000     0.0448731  
H395     H      0.002890000000     0.144660000000     0.056000000000     0.0411354  
H396     H      0.010550000000     0.340580000000     0.047000000000     0.0381573  
H397     H      0.968670000000     0.342150000000     0.007920000000     0.0377517  
H398     H      0.968280000000     0.239120000000     0.045820000000     0.0453185  
H399     H      0.043250000000     0.176940000000     0.006070000000     0.0379426  
H400     H      0.059360000000     0.372620000000     0.005080000000     0.0410708  
H401     H      0.786190000000     0.972670000000     0.966470000000     0.041452   
H402     H      0.680760000000     0.959210000000     0.025450000000     0.0353541  
H403     H      0.678260000000     0.028400000000     0.954580000000     0.0354736  
H404     H      0.859880000000     0.010330000000     0.051750000000     0.0407615  
H405     H      0.635990000000     0.947190000000     0.993110000000     0.0414051  
H406     H      0.815800000000     0.046880000000     0.970070000000     0.035781   
H407     H      0.816000000000     0.976860000000     0.040100000000     0.0356424  
H408     H      0.874410000000     0.044060000000     0.966740000000     0.0449231  
H409     H      0.619880000000     0.031040000000     0.958550000000     0.0454973  
H410     H      0.729940000000     0.963670000000     0.958870000000     0.0458128  
H411     H      0.622400000000     0.961290000000     0.030160000000     0.0454417  
H412     H      0.765550000000     0.042790000000     0.035810000000     0.0450716  
H413     H      0.665960000000     0.997630000000     0.034630000000     0.0389331  
H414     H      0.874500000000     0.973760000000     0.037320000000     0.045307   
H415     H      0.634340000000     0.994030000000     0.945030000000     0.0410875  
H416     H      0.830560000000     0.008430000000     0.961030000000     0.0386552  
H417     H      0.830750000000     0.967790000000     0.001710000000     0.0384524  
H418     H      0.709320000000     0.033860000000     0.028150000000     0.0421079  
H419     H      0.664480000000     0.038080000000     0.993190000000     0.0391513  
H420     H      0.859860000000     0.058760000000     0.003180000000     0.0403047  
H421     H      0.226150000000     0.967260000000     0.042550000000     0.0453186  
H422     H      0.317730000000     0.044470000000     0.035560000000     0.0355223  
H423     H      0.315930000000     0.975020000000     0.965030000000     0.0356204  
H424     H      0.133150000000     0.004410000000     0.054910000000     0.041309   
H425     H      0.363570000000     0.054080000000     0.004360000000     0.041259   
H426     H      0.179250000000     0.967990000000     0.973800000000     0.0356769  
H427     H      0.179300000000     0.035520000000     0.046190000000     0.0354282  
H428     H      0.121100000000     0.974220000000     0.967800000000     0.0449213  
H429     H      0.374090000000     0.968080000000     0.970120000000     0.0451704  
H430     H      0.283120000000     0.972300000000     0.037000000000     0.0414745  
H431     H      0.375950000000     0.037730000000     0.040880000000     0.0447847  
H432     H      0.213000000000     0.039850000000     0.973930000000     0.0416064  
H433     H      0.329730000000     0.005080000000     0.044630000000     0.0382827  
H434     H      0.121110000000     0.041910000000     0.040520000000     0.0448701  
H435     H      0.362290000000     0.005260000000     0.954780000000     0.0411251  
H436     H      0.166920000000     0.007470000000     0.965590000000     0.0381679  
H437     H      0.166940000000     0.046530000000     0.007480000000     0.0380943  
H438     H      0.269970000000     0.044770000000     0.968260000000     0.0454076  
H439     H      0.328730000000     0.964930000000     0.003850000000     0.0376007  
H440     H      0.133100000000     0.957090000000     0.004080000000     0.0403345  
H441     H      0.944900000000     0.019530000000     0.723600000000     0.0451865  
H442     H      0.020890000000     0.971050000000     0.820740000000     0.0347607  
H443     H      0.971990000000     0.057310000000     0.822630000000     0.0348167  
H444     H      0.993720000000     0.058850000000     0.633470000000     0.0419315  
H445     H      0.990540000000     0.967750000000     0.867470000000     0.0423379  
H446     H      0.973060000000     0.974260000000     0.686220000000     0.0349606  
H447     H      0.022700000000     0.060010000000     0.681280000000     0.0348751  
H448     H      0.981360000000     0.965910000000     0.629040000000     0.0438246  
H449     H      0.979340000000     0.060160000000     0.880850000000     0.043388   
H450     H      0.944270000000     0.015100000000     0.780740000000     0.0453028  
H451     H      0.030030000000     0.975470000000     0.878980000000     0.0455039  
H452     H      0.045900000000     0.017790000000     0.725010000000     0.0409498  
H453     H      0.040320000000     0.006340000000     0.833460000000     0.0367443  
H454     H      0.033460000000     0.049800000000     0.623890000000     0.0450575  
H455     H      0.953810000000     0.029480000000     0.867910000000     0.0429544  
H456     H      0.013710000000     0.974890000000     0.675140000000     0.0385352  
H457     H      0.042170000000     0.023540000000     0.672590000000     0.0371642  
H458     H      0.045260000000     0.016310000000     0.781540000000     0.0409853  
H459     H      0.012350000000     0.055290000000     0.834590000000     0.0381658  
H460     H      0.956350000000     0.998340000000     0.638260000000     0.0427813  
H461     H      0.941540000000     0.997460000000     0.225190000000     0.0455793  
H462     H      0.018330000000     0.948260000000     0.322410000000     0.0349673  
H463     H      0.972250000000     0.036080000000     0.321370000000     0.0350212  
H464     H      0.985190000000     0.048400000000     0.139940000000     0.0421417  
H465     H      0.989600000000     0.948550000000     0.370410000000     0.0422248  
H466     H      0.972010000000     0.956670000000     0.182070000000     0.0348501  
H467     H      0.015480000000     0.045670000000     0.186830000000     0.0348783  
H468     H      0.979690000000     0.955960000000     0.123970000000     0.0437297  
H469     H      0.980970000000     0.041640000000     0.378800000000     0.044424   
H470     H      0.942280000000     0.990610000000     0.282100000000     0.0456055  
H471     H      0.029700000000     0.955540000000     0.380190000000     0.0452674  
H472     H      0.042520000000     0.998580000000     0.224380000000     0.0412455  
H473     H      0.039380000000     0.983440000000     0.332560000000     0.0372388  
H474     H      0.025170000000     0.043590000000     0.128490000000     0.0453096  
H475     H      0.954710000000     0.010610000000     0.368320000000     0.0427327  
H476     H      0.012240000000     0.961510000000     0.170430000000     0.038171   
H477     H      0.037150000000     0.012070000000     0.173230000000     0.0370291  
H478     H      0.043180000000     0.994550000000     0.280910000000     0.041189   
H479     H      0.012870000000     0.033370000000     0.332310000000     0.0383295  
H480     H      0.952410000000     0.984810000000     0.137570000000     0.0428916  
N1       N      0.514250000000     0.495640000000     0.879540000000    -0.157612   
N2       N      0.512190000000     0.488740000000     0.814110000000    -0.113161   
N3       N      0.518660000000     0.490350000000     0.680760000000    -0.113113   
N4       N      0.512070000000     0.498470000000     0.615760000000    -0.157754   
N5       N      0.499970000000     0.510770000000     0.115540000000    -0.158426   
N6       N      0.491630000000     0.514980000000     0.180600000000    -0.113344   
N7       N      0.491140000000     0.502510000000     0.313340000000    -0.11324    
N8       N      0.497980000000     0.503570000000     0.378640000000    -0.158409   
N9       N      0.508950000000     0.622600000000     0.498430000000    -0.158539   
N10      N      0.514720000000     0.688000000000     0.494190000000    -0.113529   
N11      N      0.503590000000     0.820390000000     0.503210000000    -0.113403   
N12      N      0.507350000000     0.885840000000     0.499030000000    -0.158436   
N13      N      0.499100000000     0.385660000000     0.496430000000    -0.15851    
N14      N      0.494570000000     0.319970000000     0.494500000000    -0.113598   
N15      N      0.508780000000     0.188500000000     0.510650000000    -0.113587   
N16      N      0.505900000000     0.122790000000     0.507050000000    -0.158533   
N17      N      0.513760000000     0.620910000000     0.988220000000    -0.157362   
N18      N      0.512660000000     0.687110000000     0.987310000000    -0.113525   
N19      N      0.490530000000     0.816210000000     0.013870000000    -0.113827   
N20      N      0.491030000000     0.882430000000     0.013670000000    -0.158186   
N21      N      0.520620000000     0.383350000000     0.004130000000    -0.158154   
N22      N      0.523340000000     0.317350000000     0.007730000000    -0.113772   
N23      N      0.502200000000     0.186040000000     0.995430000000    -0.113367   
N24      N      0.501880000000     0.120090000000     0.999730000000    -0.156839   
N25      N      0.496910000000     0.997310000000     0.621730000000    -0.158105   
N26      N      0.488220000000     0.991050000000     0.686530000000    -0.113019   
N27      N      0.485250000000     0.999830000000     0.819500000000    -0.113128   
N28      N      0.491780000000     0.998750000000     0.884810000000    -0.158401   
N29      N      0.506230000000     0.009320000000     0.121090000000    -0.157932   
N30      N      0.511370000000     0.016710000000     0.186290000000    -0.113242   
N31      N      0.501790000000     0.016920000000     0.319460000000    -0.113251   
N32      N      0.504040000000     0.010140000000     0.384850000000    -0.157859   
N33      N      0.622770000000     0.506000000000     0.486860000000    -0.158424   
N34      N      0.688720000000     0.507110000000     0.483490000000    -0.113718   
N35      N      0.819130000000     0.490610000000     0.506060000000    -0.113565   
N36      N      0.884950000000     0.495010000000     0.507790000000    -0.158288   
N37      N      0.122240000000     0.508370000000     0.506500000000    -0.158267   
N38      N      0.187910000000     0.514380000000     0.507640000000    -0.113508   
N39      N      0.319880000000     0.502630000000     0.492280000000    -0.113488   
N40      N      0.385640000000     0.505610000000     0.496460000000    -0.158298   
N41      N      0.894080000000     0.515440000000     0.008970000000    -0.15817    
N42      N      0.828170000000     0.519530000000     0.006610000000    -0.113989   
N43      N      0.696380000000     0.501610000000     0.018220000000    -0.113808   
N44      N      0.630690000000     0.502220000000     0.010660000000    -0.158328   
N45      N      0.393780000000     0.494330000000     0.993120000000    -0.15772    
N46      N      0.327700000000     0.492090000000     0.993550000000    -0.112973   
N47      N      0.197900000000     0.512210000000     0.017480000000    -0.113884   
N48      N      0.131810000000     0.512000000000     0.015950000000    -0.158505   
N49      N      0.015220000000     0.505430000000     0.890790000000    -0.158428   
N50      N      0.017970000000     0.496280000000     0.825860000000    -0.113555   
N51      N      0.003740000000     0.490130000000     0.693460000000    -0.113759   
N52      N      0.003490000000     0.494990000000     0.627940000000    -0.158449   
N53      N      0.999060000000     0.509280000000     0.391150000000    -0.156963   
N54      N      0.996810000000     0.513400000000     0.325530000000    -0.112607   
N55      N      0.015850000000     0.514040000000     0.193580000000    -0.113647   
N56      N      0.013810000000     0.511370000000     0.127900000000    -0.157987   
N57      N      0.999710000000     0.882850000000     0.508000000000    -0.157174   
N58      N      0.993870000000     0.817170000000     0.508550000000    -0.113428   
N59      N      0.005800000000     0.685720000000     0.527320000000    -0.113886   
N60      N      0.003740000000     0.619990000000     0.521550000000    -0.158622   
N61      N      0.006020000000     0.383190000000     0.509700000000    -0.158568   
N62      N      0.003660000000     0.317340000000     0.511780000000    -0.114061   
N63      N      0.017040000000     0.186210000000     0.491750000000    -0.113958   
N64      N      0.012450000000     0.120420000000     0.494340000000    -0.159146   
N65      N      0.885630000000     0.001980000000     0.501910000000    -0.158499   
N66      N      0.819830000000     0.998920000000     0.499660000000    -0.113227   
N67      N      0.688430000000     0.014020000000     0.516490000000    -0.113791   
N68      N      0.622680000000     0.010300000000     0.512480000000    -0.158695   
N69      N      0.385930000000     0.998600000000     0.506600000000    -0.15806    
N70      N      0.320310000000     0.992900000000     0.510050000000    -0.113526   
N71      N      0.188250000000     0.003920000000     0.495310000000    -0.113588   
N72      N      0.122570000000     0.000570000000     0.499710000000    -0.158507   
N73      N      0.992350000000     0.890500000000     0.992020000000    -0.157831   
N74      N      0.992910000000     0.824580000000     0.988100000000    -0.113437   
N75      N      0.017350000000     0.694790000000     0.006670000000    -0.113895   
N76      N      0.016480000000     0.628820000000     0.007110000000    -0.159179   
N77      N      0.997900000000     0.128130000000     0.009760000000    -0.158249   
N78      N      0.996860000000     0.194000000000     0.014130000000    -0.112918   
N79      N      0.015110000000     0.325380000000     0.999620000000    -0.113008   
N80      N      0.013550000000     0.391260000000     0.003980000000    -0.158801   
N81      N      0.616590000000     0.992620000000     0.991080000000    -0.157652   
N82      N      0.682660000000     0.991730000000     0.987870000000    -0.113559   
N83      N      0.812830000000     0.014190000000     0.007400000000    -0.11382    
N84      N      0.878930000000     0.013240000000     0.006300000000    -0.158539   
N85      N      0.379920000000     0.007550000000     0.000830000000    -0.158469   
N86      N      0.314080000000     0.012410000000     0.997740000000    -0.112821   
N87      N      0.182030000000     0.999080000000     0.012500000000    -0.113478   
N88      N      0.116190000000     0.003330000000     0.008560000000    -0.158359   
N89      N      0.997540000000     0.013540000000     0.884670000000    -0.157781   
N90      N      0.992630000000     0.012060000000     0.819230000000    -0.113181   
N91      N      0.994060000000     0.019530000000     0.686010000000    -0.113042   
N92      N      0.000850000000     0.011530000000     0.621130000000    -0.158592   
N93      N      0.998700000000     0.994960000000     0.384710000000    -0.156872   
N94      N      0.991420000000     0.990080000000     0.319610000000    -0.112915   
N95      N      0.989830000000     0.002980000000     0.186930000000    -0.113374   
N96      N      0.995250000000     0.003660000000     0.121530000000    -0.157872   
O1       O      0.997580000000     0.009090000000     0.003140000000    -0.366635   
O2       O      0.980610000000     0.984990000000     0.073720000000    -0.304419   
O3       O      0.069480000000     0.024030000000     0.024660000000    -0.303845   
O4       O      0.013900000000     0.937910000000     0.979940000000    -0.306945   
O5       O      0.013150000000     0.025240000000     0.076060000000    -0.305374   
O6       O      0.976430000000     0.935930000000     0.015440000000    -0.30595    
O7       O      0.069590000000     0.989430000000     0.986150000000    -0.30307    
O8       O      0.980430000000     0.031640000000     0.931940000000    -0.304236   
O9       O      0.017160000000     0.080400000000     0.024520000000    -0.305225   
O10      O      0.016090000000     0.994050000000     0.930750000000    -0.305898   
O11      O      0.979980000000     0.082360000000     0.988650000000    -0.30406    
O12      O      0.925780000000     0.029480000000     0.986030000000    -0.302514   
O13      O      0.925600000000     0.992240000000     0.021960000000    -0.303676   
O14      O      0.004140000000     0.001840000000     0.502820000000    -0.368297   
O15      O      0.985480000000     0.018000000000     0.430930000000    -0.304262   
O16      O      0.075240000000     0.981710000000     0.483130000000    -0.303846   
O17      O      0.026760000000     0.073680000000     0.515820000000    -0.306465   
O18      O      0.018500000000     0.978090000000     0.431440000000    -0.30328    
O19      O      0.988520000000     0.074350000000     0.481100000000    -0.303843   
O20      O      0.076370000000     0.017760000000     0.520320000000    -0.305799   
O21      O      0.985790000000     0.987850000000     0.575740000000    -0.304512   
O22      O      0.020520000000     0.928010000000     0.488090000000    -0.303905   
O23      O      0.021190000000     0.025600000000     0.573740000000    -0.305115   
O24      O      0.984480000000     0.931160000000     0.525010000000    -0.304836   
O25      O      0.932410000000     0.985350000000     0.521650000000    -0.305294   
O26      O      0.932410000000     0.021490000000     0.484620000000    -0.304329   
O27      O      0.013170000000     0.510040000000     0.009310000000    -0.367931   
O28      O      0.940190000000     0.494510000000     0.991700000000    -0.304455   
O29      O      0.997510000000     0.530800000000     0.080940000000    -0.304083   
O30      O      0.031080000000     0.437190000000     0.025090000000    -0.304591   
O31      O      0.941610000000     0.531110000000     0.028220000000    -0.303548   
O32      O      0.993170000000     0.438730000000     0.989900000000    -0.302442   
O33      O      0.028000000000     0.488910000000     0.081540000000    -0.303575   
O34      O      0.085790000000     0.527950000000     0.993880000000    -0.303785   
O35      O      0.997470000000     0.582690000000     0.026180000000    -0.304567   
O36      O      0.084460000000     0.491600000000     0.030650000000    -0.302975   
O37      O      0.032590000000     0.581330000000     0.988240000000    -0.302656   
O38      O      0.035020000000     0.524020000000     0.936920000000    -0.303474   
O39      O      0.993410000000     0.493180000000     0.937860000000    -0.304611   
O40      O      0.003560000000     0.501950000000     0.509640000000    -0.368197   
O41      O      0.076980000000     0.486940000000     0.525280000000    -0.305496   
O42      O      0.016150000000     0.527320000000     0.438470000000    -0.304866   
O43      O      0.988400000000     0.429740000000     0.490380000000    -0.305552   
O44      O      0.074020000000     0.523600000000     0.488900000000    -0.304491   
O45      O      0.025240000000     0.430250000000     0.526680000000    -0.303897   
O46      O      0.987540000000     0.484180000000     0.436830000000    -0.304213   
O47      O      0.930150000000     0.516280000000     0.527140000000    -0.304095   
O48      O      0.019930000000     0.575100000000     0.497650000000    -0.306041   
O49      O      0.933190000000     0.480710000000     0.489700000000    -0.305096   
O50      O      0.983170000000     0.572030000000     0.533930000000    -0.30215    
O51      O      0.982410000000     0.513130000000     0.582260000000    -0.302639   
O52      O      0.025000000000     0.483680000000     0.580440000000    -0.304568   
O53      O      0.498610000000     0.000930000000     0.003120000000    -0.367126   
O54      O      0.426030000000     0.985390000000     0.985070000000    -0.303006   
O55      O      0.482380000000     0.021240000000     0.074820000000    -0.303905   
O56      O      0.513880000000     0.929250000000     0.026630000000    -0.302131   
O57      O      0.427170000000     0.022360000000     0.021230000000    -0.303815   
O58      O      0.476400000000     0.928590000000     0.990970000000    -0.303838   
O59      O      0.522850000000     0.988790000000     0.074550000000    -0.302584   
O60      O      0.569620000000     0.014910000000     0.978270000000    -0.304941   
O61      O      0.482740000000     0.074290000000     0.020030000000    -0.302499   
O62      O      0.570950000000     0.979130000000     0.015610000000    -0.304945   
O63      O      0.518910000000     0.072190000000     0.983140000000    -0.30395    
O64      O      0.510890000000     0.019220000000     0.930230000000    -0.305898   
O65      O      0.479830000000     0.977850000000     0.932470000000    -0.30465    
O66      O      0.504410000000     0.004240000000     0.503560000000    -0.368383   
O67      O      0.432030000000     0.020930000000     0.522170000000    -0.304568   
O68      O      0.484830000000     0.990620000000     0.430770000000    -0.304109   
O69      O      0.522800000000     0.076250000000     0.486870000000    -0.305178   
O70      O      0.433050000000     0.983870000000     0.486120000000    -0.305273   
O71      O      0.485810000000     0.075900000000     0.523040000000    -0.305866   
O72      O      0.525220000000     0.023050000000     0.432170000000    -0.304402   
O73      O      0.575850000000     0.988470000000     0.526610000000    -0.30465    
O74      O      0.488620000000     0.932770000000     0.481280000000    -0.304301   
O75      O      0.576650000000     0.024090000000     0.489130000000    -0.306182   
O76      O      0.524590000000     0.932430000000     0.518490000000    -0.306662   
O77      O      0.517480000000     0.980940000000     0.575230000000    -0.30471    
O78      O      0.484990000000     0.021220000000     0.575540000000    -0.305034   
O79      O      0.512500000000     0.502150000000     0.997880000000    -0.365235   
O80      O      0.439810000000     0.517140000000     0.977870000000    -0.303978   
O81      O      0.498850000000     0.429830000000     0.019060000000    -0.305396   
O82      O      0.535690000000     0.483650000000     0.927080000000    -0.302305   
O83      O      0.441130000000     0.479050000000     0.012830000000    -0.305741   
O84      O      0.493980000000     0.514440000000     0.925240000000    -0.303487   
O85      O      0.535240000000     0.430160000000     0.982330000000    -0.301313   
O86      O      0.582180000000     0.521210000000     0.023130000000    -0.303723   
O87      O      0.490960000000     0.486030000000     0.069180000000    -0.306116   
O88      O      0.586320000000     0.485880000000     0.985550000000    -0.302722   
O89      O      0.521630000000     0.527730000000     0.069640000000    -0.304305   
O90      O      0.530050000000     0.575340000000     0.010930000000    -0.305712   
O91      O      0.493300000000     0.573160000000     0.974570000000    -0.302048   
O92      O      0.504530000000     0.504050000000     0.497210000000    -0.367501   
O93      O      0.432830000000     0.524480000000     0.479680000000    -0.305149   
O94      O      0.483820000000     0.433140000000     0.515740000000    -0.304709   
O95      O      0.516990000000     0.483430000000     0.424380000000    -0.304294   
O96      O      0.432080000000     0.488160000000     0.516490000000    -0.3051     
O97      O      0.485950000000     0.524790000000     0.426070000000    -0.305721   
O98      O      0.520200000000     0.431550000000     0.478970000000    -0.305403   
O99      O      0.577330000000     0.521750000000     0.510070000000    -0.305901   
O100     O      0.487410000000     0.486520000000     0.569870000000    -0.304068   
O101     O      0.575200000000     0.485140000000     0.473590000000    -0.303708   
O102     O      0.528940000000     0.517500000000     0.568700000000    -0.303951   
O103     O      0.524800000000     0.575140000000     0.517530000000    -0.304356   
O104     O      0.488520000000     0.576630000000     0.480660000000    -0.307198   
Zn1      Zn     0.971070000000     0.981160000000     0.027830000000     0.449847   
Zn2      Zn     0.023730000000     0.034110000000     0.031060000000     0.447674   
Zn3      Zn     0.023850000000     0.983660000000     0.975870000000     0.450527   
Zn4      Zn     0.971750000000     0.037230000000     0.977950000000     0.449478   
Zn5      Zn     0.978320000000     0.028490000000     0.476060000000     0.45043    
Zn6      Zn     0.029080000000     0.973200000000     0.477190000000     0.447863   
Zn7      Zn     0.031270000000     0.028570000000     0.527810000000     0.450793   
Zn8      Zn     0.977790000000     0.977270000000     0.530680000000     0.452572   
Zn9      Zn     0.985490000000     0.484880000000     0.983310000000     0.451441   
Zn10     Zn     0.988010000000     0.537680000000     0.035450000000     0.450286   
Zn11     Zn     0.038250000000     0.482490000000     0.035890000000     0.447517   
Zn12     Zn     0.040690000000     0.535040000000     0.982550000000     0.448781   
Zn13     Zn     0.032080000000     0.476450000000     0.534570000000     0.449728   
Zn14     Zn     0.027600000000     0.530960000000     0.484060000000     0.450112   
Zn15     Zn     0.979270000000     0.474930000000     0.482220000000     0.452315   
Zn16     Zn     0.975390000000     0.525330000000     0.537230000000     0.448469   
Zn17     Zn     0.471330000000     0.973710000000     0.978620000000     0.450365   
Zn18     Zn     0.473290000000     0.028670000000     0.029210000000     0.44742    
Zn19     Zn     0.525890000000     0.975210000000     0.029340000000     0.446259   
Zn20     Zn     0.523900000000     0.026190000000     0.974790000000     0.451119   
Zn21     Zn     0.477670000000     0.030160000000     0.530000000000     0.450876   
Zn22     Zn     0.478610000000     0.978650000000     0.475970000000     0.450052   
Zn23     Zn     0.531480000000     0.030750000000     0.478280000000     0.450406   
Zn24     Zn     0.530060000000     0.977400000000     0.530070000000     0.451914   
Zn25     Zn     0.485510000000     0.526390000000     0.970010000000     0.447073   
Zn26     Zn     0.486780000000     0.474940000000     0.023850000000     0.451066   
Zn27     Zn     0.541620000000     0.476470000000     0.973510000000     0.446371   
Zn28     Zn     0.535910000000     0.530770000000     0.024710000000     0.448302   
Zn29     Zn     0.478750000000     0.531780000000     0.471870000000     0.452575   
Zn30     Zn     0.477640000000     0.479070000000     0.524320000000     0.449465   
Zn31     Zn     0.528750000000     0.476760000000     0.469560000000     0.449525   
Zn32     Zn     0.532810000000     0.528870000000     0.523020000000     0.449466   


