data_structure

_audit_creation_method RASPA-1.0
_audit_creation_date 2023-5-25
_audit_author_name 'Poobodin Mano'

_cell_length_a    42.6316
_cell_length_b    42.6515
_cell_length_c    42.7165
_cell_angle_alpha 90
_cell_angle_beta  90
_cell_angle_gamma 90
_cell_volume      77671.5

_symmetry_cell_setting          triclinic
_symmetry_space_group_name_Hall 'P 1'
_symmetry_space_group_name_H-M  'P 1'
_symmetry_Int_Tables_number     1

_symmetry_equiv_pos_as_xyz 'x,y,z'

loop_
_atom_site_label
_atom_site_type_symbol
_atom_site_fract_x
_atom_site_fract_y
_atom_site_fract_z
_atom_site_charge
C1       C      0.994180000000     0.003000000000     0.081690000000     0.363316   
C2       C      0.914850000000     0.989340000000     0.987450000000     0.361107   
C3       C      0.995730000000     0.085070000000     0.994250000000     0.371951   
C4       C      0.004790000000     0.997890000000     0.907990000000     0.37428    
C5       C      0.008740000000     0.912300000000     0.000980000000     0.370168   
C6       C      0.087660000000     0.003940000000     0.996820000000     0.361826   
C7       C      0.985790000000     0.992560000000     0.408030000000     0.372279   
C8       C      0.077530000000     0.014690000000     0.489000000000     0.370506   
C9       C      0.984370000000     0.089610000000     0.487960000000     0.36053    
C10      C      0.993420000000     0.006060000000     0.580350000000     0.362235   
C11      C      0.000200000000     0.917310000000     0.500510000000     0.360212   
C12      C      0.903400000000     0.000040000000     0.498320000000     0.360796   
C13      C      0.980090000000     0.413180000000     0.991450000000     0.36102    
C14      C      0.984600000000     0.497210000000     0.079140000000     0.361334   
C15      C      0.074540000000     0.494930000000     0.997750000000     0.35867    
C16      C      0.986070000000     0.585870000000     0.998800000000     0.360449   
C17      C      0.902850000000     0.500310000000     0.979440000000     0.36812    
C18      C      0.002540000000     0.504020000000     0.906360000000     0.370012   
C19      C      0.998890000000     0.416800000000     0.484020000000     0.371502   
C20      C      0.991560000000     0.510540000000     0.406030000000     0.372457   
C21      C      0.913710000000     0.502470000000     0.503980000000     0.372675   
C22      C      0.003680000000     0.589900000000     0.489860000000     0.370691   
C23      C      0.085930000000     0.499370000000     0.490020000000     0.361667   
C24      C      0.003140000000     0.503730000000     0.578910000000     0.360082   
C25      C      0.414570000000     0.993260000000     0.010490000000     0.372596   
C26      C      0.506270000000     0.993990000000     0.091290000000     0.376533   
C27      C      0.499810000000     0.905870000000     0.006550000000     0.3744     
C28      C      0.587940000000     0.991880000000     0.999690000000     0.371375   
C29      C      0.503970000000     0.080310000000     0.005590000000     0.375394   
C30      C      0.494700000000     0.994170000000     0.918070000000     0.371553   
C31      C      0.401970000000     0.987460000000     0.509190000000     0.360635   
C32      C      0.487270000000     0.982320000000     0.417670000000     0.363948   
C33      C      0.489780000000     0.071730000000     0.500010000000     0.372108   
C34      C      0.575800000000     0.979380000000     0.499900000000     0.369183   
C35      C      0.482010000000     0.897120000000     0.506470000000     0.361755   
C36      C      0.496030000000     0.988120000000     0.590450000000     0.360713   
C37      C      0.403370000000     0.496000000000     0.989300000000     0.371291   
C38      C      0.488820000000     0.406110000000     0.982730000000     0.363069   
C39      C      0.479780000000     0.496830000000     0.899690000000     0.371016   
C40      C      0.576420000000     0.492020000000     0.974440000000     0.360947   
C41      C      0.496210000000     0.484880000000     0.072540000000     0.370659   
C42      C      0.497040000000     0.578870000000     0.993180000000     0.360599   
C43      C      0.413910000000     0.481770000000     0.488130000000     0.370614   
C44      C      0.503150000000     0.399490000000     0.492660000000     0.361417   
C45      C      0.502720000000     0.478950000000     0.400410000000     0.360366   
C46      C      0.587130000000     0.488140000000     0.492800000000     0.362061   
C47      C      0.500550000000     0.494020000000     0.573970000000     0.361219   
C48      C      0.497470000000     0.572880000000     0.476730000000     0.36997    
C49      C      0.491020000000     0.474230000000     0.817260000000    -0.0303081  
C50      C      0.499600000000     0.528180000000     0.654110000000    -0.0290684  
C51      C      0.496510000000     0.466600000000     0.624480000000    -0.0105868  
C52      C      0.514630000000     0.523370000000     0.621810000000    -0.00960071 
C53      C      0.462330000000     0.504430000000     0.715430000000    -0.0554209  
C54      C      0.511770000000     0.504760000000     0.758460000000    -0.0556209  
C55      C      0.493510000000     0.502800000000     0.704590000000     0.0618899  
C56      C      0.482660000000     0.473940000000     0.656570000000    -0.0283936  
C57      C      0.480590000000     0.503120000000     0.769310000000     0.0622509  
C58      C      0.475470000000     0.529030000000     0.819680000000    -0.0775748  
C59      C      0.456030000000     0.504030000000     0.747540000000    -0.0523476  
C60      C      0.461060000000     0.524790000000     0.852470000000     0.167393   
C61      C      0.477800000000     0.467740000000     0.849810000000    -0.00207632 
C62      C      0.518060000000     0.504050000000     0.726350000000    -0.0531523  
C63      C      0.474080000000     0.472190000000     0.156240000000    -0.0313643  
C64      C      0.478850000000     0.490750000000     0.317070000000    -0.0285316  
C65      C      0.527720000000     0.458470000000     0.352490000000    -0.00950782 
C66      C      0.472760000000     0.482170000000     0.351270000000    -0.0104705  
C67      C      0.502790000000     0.442000000000     0.251850000000    -0.0534469  
C68      C      0.505350000000     0.499450000000     0.220430000000    -0.0544162  
C69      C      0.502480000000     0.469870000000     0.269190000000     0.0622269  
C70      C      0.531160000000     0.468740000000     0.318260000000    -0.0290257  
C71      C      0.505830000000     0.471310000000     0.203090000000     0.0620496  
C72      C      0.526240000000     0.494270000000     0.154390000000    -0.0771193  
C73      C      0.504650000000     0.442710000000     0.219200000000    -0.0518801  
C74      C      0.529950000000     0.486980000000     0.119370000000     0.166253   
C75      C      0.474940000000     0.463190000000     0.121570000000    -0.00160457 
C76      C      0.504620000000     0.498710000000     0.253180000000    -0.0552689  
C77      C      0.511940000000     0.655570000000     0.496790000000    -0.0304163  
C78      C      0.460730000000     0.817920000000     0.478800000000    -0.0288863  
C79      C      0.497040000000     0.845960000000     0.529460000000    -0.0100569  
C80      C      0.451540000000     0.850120000000     0.491530000000    -0.0101334  
C81      C      0.499550000000     0.758410000000     0.469680000000    -0.0558077  
C82      C      0.467900000000     0.711770000000     0.503190000000    -0.0554835  
C83      C      0.479620000000     0.766860000000     0.494580000000     0.0621154  
C84      C      0.504230000000     0.813730000000     0.515310000000    -0.028975   
C85      C      0.488070000000     0.703290000000     0.478490000000     0.0620032  
C86      C      0.466860000000     0.652820000000     0.462140000000    -0.0772267  
C87      C      0.503670000000     0.726860000000     0.461790000000    -0.0520644  
C88      C      0.476510000000     0.620170000000     0.450060000000     0.166695   
C89      C      0.523760000000     0.623600000000     0.486000000000    -0.00224023 
C90      C      0.463730000000     0.743310000000     0.511050000000    -0.0535019  
C91      C      0.515030000000     0.152870000000     0.479620000000    -0.030904   
C92      C      0.478420000000     0.317910000000     0.512070000000    -0.0287906  
C93      C      0.528440000000     0.349630000000     0.477850000000    -0.00996858 
C94      C      0.486840000000     0.351680000000     0.520650000000    -0.00994092 
C95      C      0.518770000000     0.247820000000     0.516510000000    -0.0533033  
C96      C      0.474880000000     0.223290000000     0.474480000000    -0.0519643  
C97      C      0.501390000000     0.268210000000     0.497550000000     0.062223   
C98      C      0.518010000000     0.315890000000     0.471470000000    -0.0288108  
C99      C      0.492250000000     0.202890000000     0.493450000000     0.0623522  
C100     C      0.474970000000     0.155580000000     0.519710000000    -0.0776076  
C101     C      0.514320000000     0.215410000000     0.514560000000    -0.0556493  
C102     C      0.464120000000     0.121820000000     0.513480000000     0.167111   
C103     C      0.506500000000     0.119050000000     0.471400000000    -0.00195434 
C104     C      0.479320000000     0.255700000000     0.476440000000    -0.0556885  
C105     C      0.524460000000     0.823800000000     0.023300000000    -0.0307666  
C106     C      0.478430000000     0.663640000000     0.983340000000    -0.0295121  
C107     C      0.526210000000     0.624670000000     0.012990000000    -0.00871826 
C108     C      0.483760000000     0.630440000000     0.971230000000    -0.00983527 
C109     C      0.485400000000     0.721810000000     0.024270000000    -0.056088   
C110     C      0.520560000000     0.762460000000     0.986690000000    -0.056408   
C111     C      0.505820000000     0.709520000000     0.001450000000     0.0636121  
C112     C      0.518890000000     0.658410000000     0.022760000000    -0.0285288  
C113     C      0.499880000000     0.774760000000     0.009260000000     0.0632761  
C114     C      0.482360000000     0.823030000000     0.985240000000    -0.0779524  
C115     C      0.482550000000     0.754200000000     0.028070000000    -0.0521576  
C116     C      0.472540000000     0.856760000000     0.992900000000     0.166177   
C117     C      0.517060000000     0.857490000000     0.032870000000    -0.00174838 
C118     C      0.523430000000     0.730080000000     0.982900000000    -0.0543759  
C119     C      0.480610000000     0.162940000000     0.019420000000    -0.0306168  
C120     C      0.514910000000     0.324120000000     0.968670000000    -0.0289552  
C121     C      0.463800000000     0.356990000000     0.000020000000    -0.00843384 
C122     C      0.505520000000     0.356840000000     0.957420000000    -0.00969991 
C123     C      0.475840000000     0.252730000000     0.971660000000    -0.0533217  
C124     C      0.520550000000     0.233600000000     0.015610000000    -0.0510575  
C125     C      0.493390000000     0.275280000000     0.987800000000     0.0619758  
C126     C      0.475240000000     0.324390000000     0.009370000000    -0.0285706  
C127     C      0.502930000000     0.211060000000     0.999540000000     0.061412   
C128     C      0.520270000000     0.161280000000     0.978730000000    -0.0781928  
C129     C      0.480510000000     0.220840000000     0.977390000000    -0.0553283  
C130     C      0.531150000000     0.128470000000     0.988540000000     0.166473   
C131     C      0.489290000000     0.130170000000     0.031020000000    -0.00160026 
C132     C      0.515890000000     0.265500000000     0.009860000000    -0.0551176  
C133     C      0.485750000000     0.967040000000     0.836010000000    -0.0312872  
C134     C      0.482720000000     0.016370000000     0.671460000000    -0.0287592  
C135     C      0.516280000000     0.965910000000     0.639820000000    -0.00944159 
C136     C      0.493810000000     0.021090000000     0.637800000000    -0.0105764  
C137     C      0.469080000000     0.993150000000     0.735000000000    -0.0554504  
C138     C      0.522210000000     0.992200000000     0.773380000000    -0.0550622  
C139     C      0.499180000000     0.993420000000     0.721320000000     0.06208    
C140     C      0.503620000000     0.963470000000     0.673290000000    -0.0291081  
C141     C      0.492210000000     0.994810000000     0.787010000000     0.0621542  
C142     C      0.510340000000     0.018300000000     0.836120000000    -0.0775748  
C143     C      0.465780000000     0.994480000000     0.767510000000    -0.0518656  
C144     C      0.499520000000     0.025200000000     0.869610000000     0.166526   
C145     C      0.473390000000     0.971480000000     0.869390000000    -0.00121394 
C146     C      0.525560000000     0.992140000000     0.740850000000    -0.0533904  
C147     C      0.513500000000     0.962820000000     0.171710000000    -0.0313639  
C148     C      0.470930000000     0.959270000000     0.334000000000    -0.0286003  
C149     C      0.509460000000     0.003560000000     0.369350000000    -0.00919236 
C150     C      0.475960000000     0.953460000000     0.369080000000    -0.0101632  
C151     C      0.528960000000     0.978070000000     0.273000000000    -0.0530637  
C152     C      0.475450000000     0.985400000000     0.235970000000    -0.0541713  
C153     C      0.499330000000     0.977640000000     0.287180000000     0.062922   
C154     C      0.500730000000     0.007350000000     0.335040000000    -0.028638   
C155     C      0.505420000000     0.987200000000     0.222080000000     0.0629969  
C156     C      0.486850000000     0.012960000000     0.173900000000    -0.0776631  
C157     C      0.531990000000     0.983160000000     0.240920000000    -0.0519443  
C158     C      0.498260000000     0.022240000000     0.141120000000     0.167142   
C159     C      0.526990000000     0.969810000000     0.139340000000    -0.000575445
C160     C      0.472470000000     0.981640000000     0.268350000000    -0.0548646  
C161     C      0.833580000000     0.471520000000     0.516030000000    -0.0313004  
C162     C      0.671390000000     0.464820000000     0.483920000000    -0.0286805  
C163     C      0.633960000000     0.512240000000     0.516090000000    -0.0092516  
C164     C      0.636550000000     0.458490000000     0.489660000000    -0.0103609  
C165     C      0.732570000000     0.489490000000     0.538450000000    -0.0534192  
C166     C      0.768290000000     0.494280000000     0.483800000000    -0.0547531  
C167     C      0.717610000000     0.487840000000     0.509290000000     0.0623578  
C168     C      0.668610000000     0.516080000000     0.507950000000    -0.0289172  
C169     C      0.783060000000     0.496900000000     0.513210000000     0.0625525  
C170     C      0.830090000000     0.523960000000     0.494310000000    -0.0776254  
C171     C      0.764900000000     0.494210000000     0.540390000000    -0.0523776  
C172     C      0.863810000000     0.531850000000     0.503920000000     0.166922   
C173     C      0.867270000000     0.476960000000     0.527090000000    -0.00090868 
C174     C      0.735750000000     0.490760000000     0.481860000000    -0.0551459  
C175     C      0.331720000000     0.496330000000     0.463400000000    -0.0305728  
C176     C      0.168920000000     0.497550000000     0.518010000000    -0.0288159  
C177     C      0.133910000000     0.489000000000     0.459870000000    -0.0105791  
C178     C      0.136290000000     0.512180000000     0.515050000000    -0.00944576 
C179     C      0.229780000000     0.460680000000     0.489980000000    -0.0554309  
C180     C      0.270070000000     0.512430000000     0.490720000000    -0.0555887  
C181     C      0.217200000000     0.491220000000     0.488980000000     0.0622809  
C182     C      0.166930000000     0.476330000000     0.465530000000    -0.0284069  
C183     C      0.282660000000     0.481950000000     0.488880000000     0.0625778  
C184     C      0.331850000000     0.477520000000     0.516980000000    -0.0779414  
C185     C      0.262250000000     0.456220000000     0.489350000000    -0.0523766  
C186     C      0.365140000000     0.464040000000     0.513740000000     0.167764   
C187     C      0.365000000000     0.484530000000     0.457690000000    -0.002059   
C188     C      0.237630000000     0.516910000000     0.490170000000    -0.0531179  
C189     C      0.824550000000     0.515240000000     0.942420000000    -0.0308038  
C190     C      0.661880000000     0.499480000000     0.991120000000    -0.0304183  
C191     C      0.620910000000     0.487030000000     0.937850000000    -0.0104481  
C192     C      0.627910000000     0.510730000000     0.992310000000    -0.00984248 
C193     C      0.722320000000     0.468660000000     0.957210000000    -0.0553603  
C194     C      0.757510000000     0.524000000000     0.959130000000    -0.0557494  
C195     C      0.706810000000     0.497830000000     0.957030000000     0.061772   
C196     C      0.655700000000     0.478070000000     0.939070000000    -0.0288977  
C197     C      0.773030000000     0.494850000000     0.958070000000     0.0624248  
C198     C      0.817060000000     0.491790000000     0.993420000000    -0.0799244  
C199     C      0.755070000000     0.467330000000     0.957150000000    -0.0523942  
C200     C      0.851060000000     0.480270000000     0.995070000000     0.167629   
C201     C      0.859370000000     0.506370000000     0.941840000000    -0.00227836 
C202     C      0.724770000000     0.525350000000     0.958020000000    -0.0531685  
C203     C      0.320110000000     0.523440000000     0.986200000000    -0.0319591  
C204     C      0.156380000000     0.468240000000     0.982860000000    -0.0290702  
C205     C      0.124080000000     0.518960000000     0.015370000000    -0.00962419 
C206     C      0.122770000000     0.463130000000     0.994270000000    -0.0115153  
C207     C      0.219350000000     0.493560000000     0.968060000000    -0.0549558  
C208     C      0.258330000000     0.495760000000     0.020690000000    -0.0545581  
C209     C      0.206000000000     0.492700000000     0.998230000000     0.0609948  
C210     C      0.157340000000     0.521660000000     0.002190000000    -0.028078   
C211     C      0.271740000000     0.493960000000     0.990590000000     0.0618137  
C212     C      0.321480000000     0.470670000000     0.006920000000    -0.0760738  
C213     C      0.251940000000     0.493600000000     0.964410000000    -0.0515674  
C214     C      0.355070000000     0.465130000000     0.995510000000     0.165108   
C215     C      0.353620000000     0.520830000000     0.973460000000    -0.00148967 
C216     C      0.225790000000     0.494560000000     0.024370000000    -0.0521936  
C217     C      0.994890000000     0.532780000000     0.825150000000    -0.0295945  
C218     C      0.001110000000     0.478110000000     0.662450000000    -0.0303263  
C219     C      0.008810000000     0.535800000000     0.626500000000    -0.0111606  
C220     C      0.987930000000     0.479770000000     0.629150000000    -0.00870355 
C221     C      0.034540000000     0.508290000000     0.723930000000    -0.0551623  
C222     C      0.981440000000     0.506300000000     0.762330000000    -0.0549783  
C223     C      0.004450000000     0.508340000000     0.710260000000     0.0610541  
C224     C      0.020230000000     0.531480000000     0.660150000000    -0.0286956  
C225     C      0.011420000000     0.508750000000     0.776000000000     0.0616927  
C226     C      0.014670000000     0.479370000000     0.824430000000    -0.0785215  
C227     C      0.037850000000     0.509050000000     0.756490000000    -0.0523093  
C228     C      0.026330000000     0.481810000000     0.858420000000     0.167731   
C229     C      0.005000000000     0.537390000000     0.859150000000    -0.00312904 
C230     C      0.978080000000     0.506680000000     0.729790000000    -0.0522843  
C231     C      0.957230000000     0.515040000000     0.326240000000    -0.0310661  
C232     C      0.008600000000     0.512040000000     0.161440000000    -0.0290133  
C233     C      0.957130000000     0.482180000000     0.127770000000    -0.00957271 
C234     C      0.014330000000     0.499120000000     0.128590000000    -0.0107464  
C235     C      0.980650000000     0.531170000000     0.222080000000    -0.0552579  
C236     C      0.979860000000     0.480430000000     0.263540000000    -0.0552058  
C237     C      0.981330000000     0.500340000000     0.210230000000     0.0620879  
C238     C      0.953900000000     0.496380000000     0.160590000000    -0.0290356  
C239     C      0.982270000000     0.511180000000     0.275360000000     0.0624442  
C240     C      0.011610000000     0.498610000000     0.322580000000    -0.0778401  
C241     C      0.981670000000     0.536420000000     0.254380000000    -0.0518413  
C242     C      0.019200000000     0.510970000000     0.355360000000     0.166346   
C243     C      0.962220000000     0.528230000000     0.359310000000    -0.00108477 
C244     C      0.979930000000     0.475160000000     0.231240000000    -0.0530132  
C245     C      0.033850000000     0.670280000000     0.504460000000    -0.0305324  
C246     C      0.979430000000     0.833360000000     0.507620000000    -0.0288831  
C247     C      0.035130000000     0.871340000000     0.496050000000    -0.0102689  
C248     C      0.981270000000     0.866600000000     0.521020000000    -0.00904122 
C249     C      0.007980000000     0.773920000000     0.469730000000    -0.0551985  
C250     C      0.010870000000     0.733570000000     0.521270000000    -0.0556352  
C251     C      0.010460000000     0.786530000000     0.500120000000     0.0619398  
C252     C      0.031170000000     0.837720000000     0.484310000000    -0.0288884  
C253     C      0.010730000000     0.720990000000     0.490760000000     0.0625913  
C254     C      0.980110000000     0.673430000000     0.486110000000    -0.0775599  
C255     C      0.008710000000     0.741480000000     0.465190000000    -0.0521163  
C256     C      0.981380000000     0.640270000000     0.472120000000     0.167876   
C257     C      0.037500000000     0.636790000000     0.492260000000    -0.00215187 
C258     C      0.011330000000     0.766030000000     0.525750000000    -0.053029   
C259     C      0.987790000000     0.332170000000     0.504000000000    -0.0306291  
C260     C      0.999540000000     0.173990000000     0.505160000000    -0.0274055  
C261     C      0.965110000000     0.136220000000     0.459690000000    -0.00963626 
C262     C      0.989290000000     0.140850000000     0.514140000000    -0.0100235  
C263     C      0.953550000000     0.239130000000     0.476200000000    -0.0535991  
C264     C      0.012280000000     0.268030000000     0.472090000000    -0.055069   
C265     C      0.980690000000     0.220720000000     0.477670000000     0.0628518  
C266     C      0.977140000000     0.169450000000     0.453250000000    -0.0282841  
C267     C      0.984860000000     0.286490000000     0.471140000000     0.0628169  
C268     C      0.009560000000     0.335130000000     0.451990000000    -0.0769478  
C269     C      0.955600000000     0.271600000000     0.472750000000    -0.0521434  
C270     C      0.003350000000     0.370630000000     0.449460000000     0.165201   
C271     C      0.979150000000     0.366840000000     0.504370000000    -0.00190631 
C272     C      0.010180000000     0.235350000000     0.474450000000    -0.0558861  
C273     C      0.658830000000     0.962970000000     0.521770000000    -0.0308936  
C274     C      0.819100000000     0.012030000000     0.478160000000    -0.0290578  
C275     C      0.856440000000     0.981490000000     0.526560000000    -0.0101043  
C276     C      0.852350000000     0.023900000000     0.484830000000    -0.0101536  
C277     C      0.750790000000     0.008590000000     0.522420000000    -0.0533488  
C278     C      0.728610000000     0.964710000000     0.479120000000    -0.0520672  
C279     C      0.772190000000     0.992390000000     0.503490000000     0.0619744  
C280     C      0.823100000000     0.971570000000     0.517750000000    -0.0286927  
C281     C      0.707210000000     0.981070000000     0.497900000000     0.0621908  
C282     C      0.657580000000     0.003570000000     0.482120000000    -0.077762   
C283     C      0.718570000000     0.003060000000     0.519730000000    -0.0557557  
C284     C      0.624140000000     0.994910000000     0.472090000000     0.16711    
C285     C      0.625260000000     0.952580000000     0.514090000000    -0.00200392 
C286     C      0.760840000000     0.970220000000     0.481830000000    -0.0556675  
C287     C      0.159800000000     0.993870000000     0.473890000000    -0.0303319  
C288     C      0.322210000000     0.017800000000     0.526420000000    -0.0290186  
C289     C      0.350840000000     0.965220000000     0.493420000000    -0.0101402  
C290     C      0.354370000000     0.005670000000     0.536880000000    -0.0101811  
C291     C      0.263140000000     0.024070000000     0.485750000000    -0.055801   
C292     C      0.216220000000     0.991250000000     0.517750000000    -0.055355   
C293     C      0.271490000000     0.000600000000     0.507400000000     0.0619386  
C294     C      0.318940000000     0.979170000000     0.484840000000    -0.0287148  
C295     C      0.207840000000     0.014370000000     0.495740000000     0.0618518  
C296     C      0.157720000000     0.033090000000     0.515160000000    -0.0774955  
C297     C      0.231550000000     0.030790000000     0.480020000000    -0.0519762  
C298     C      0.125120000000     0.044320000000     0.504600000000     0.166703   
C299     C      0.127480000000     0.003430000000     0.461670000000    -0.00231417 
C300     C      0.247790000000     0.984480000000     0.523430000000    -0.0532171  
C301     C      0.014160000000     0.829270000000     0.977530000000    -0.032196   
C302     C      0.005270000000     0.665000000000     0.028520000000    -0.0297895  
C303     C      0.967370000000     0.636990000000     0.979050000000    -0.0101896  
C304     C      0.991570000000     0.632200000000     0.033110000000    -0.00913541 
C305     C      0.023550000000     0.727660000000     0.005570000000    -0.0562379  
C306     C      0.973870000000     0.770470000000     0.005210000000    -0.0540064  
C307     C      0.992420000000     0.716550000000     0.006610000000     0.063131   
C308     C      0.982670000000     0.669390000000     0.976500000000    -0.0288107  
C309     C      0.004970000000     0.781570000000     0.006840000000     0.0612758  
C310     C      0.991980000000     0.832560000000     0.029810000000    -0.076518   
C311     C      0.029630000000     0.759860000000     0.006310000000    -0.0512324  
C312     C      0.005380000000     0.865500000000     0.034970000000     0.165519   
C313     C      0.028810000000     0.861970000000     0.980440000000    -0.00160867 
C314     C      0.967780000000     0.738280000000     0.005720000000    -0.0537241  
C315     C      0.996170000000     0.168240000000     0.021430000000    -0.0297306  
C316     C      0.995200000000     0.331200000000     0.967730000000    -0.0281295  
C317     C      0.958240000000     0.364700000000     0.014430000000    -0.00917141 
C318     C      0.983810000000     0.364390000000     0.960770000000    -0.00999034 
C319     C      0.008910000000     0.269320000000     0.995040000000    -0.0560977  
C320     C      0.957030000000     0.229260000000     0.992700000000    -0.0545847  
C321     C      0.978560000000     0.282070000000     0.992010000000     0.0629126  
C322     C      0.971110000000     0.331460000000     0.019270000000    -0.0285381  
C323     C      0.987540000000     0.216480000000     0.992680000000     0.0627189  
C324     C      0.971490000000     0.165750000000     0.970510000000    -0.0774399  
C325     C      0.013260000000     0.236850000000     0.994690000000    -0.0519753  
C326     C      0.984300000000     0.132810000000     0.963950000000     0.167108   
C327     C      0.010820000000     0.135690000000     0.017570000000    -0.00200249 
C328     C      0.952740000000     0.261740000000     0.991750000000    -0.0533789  
C329     C      0.669530000000     0.006430000000     0.970930000000    -0.0308362  
C330     C      0.833480000000     0.967160000000     0.007260000000    -0.027489   
C331     C      0.866320000000     0.001430000000     0.958170000000    -0.0104016  
C332     C      0.867230000000     0.958290000000     0.998940000000    -0.0117492  
C333     C      0.763070000000     0.965960000000     0.967240000000    -0.0533603  
C334     C      0.740430000000     0.008990000000     0.011170000000    -0.0516241  
C335     C      0.784280000000     0.983910000000     0.984730000000     0.0614369  
C336     C      0.832640000000     0.008540000000     0.968140000000    -0.0289415  
C337     C      0.719230000000     0.991120000000     0.993620000000     0.0621499  
C338     C      0.671100000000     0.967120000000     0.011690000000    -0.0762408  
C339     C      0.730770000000     0.969410000000     0.971620000000    -0.0559316  
C340     C      0.637980000000     0.975190000000     0.023160000000     0.167344   
C341     C      0.636220000000     0.016420000000     0.979680000000    -0.00234233 
C342     C      0.772710000000     0.005460000000     0.006870000000    -0.0549574  
C343     C      0.331410000000     0.978570000000     0.989060000000    -0.0310109  
C344     C      0.168500000000     0.022650000000     0.023820000000    -0.0284988  
C345     C      0.138040000000     0.989760000000     0.972240000000    -0.00966703 
C346     C      0.135230000000     0.032030000000     0.014160000000    -0.00877903 
C347     C      0.229530000000     0.984960000000     0.025220000000    -0.0556488  
C348     C      0.272650000000     0.019570000000     0.989960000000    -0.0562072  
C349     C      0.218690000000     0.006550000000     0.002740000000     0.0637229  
C350     C      0.171060000000     0.982280000000     0.983930000000    -0.0294157  
C351     C      0.283480000000     0.997780000000     0.012240000000     0.0635244  
C352     C      0.333430000000     0.019880000000     0.027980000000    -0.0775361  
C353     C      0.261690000000     0.980700000000     0.029860000000    -0.0519894  
C354     C      0.366760000000     0.010770000000     0.038120000000     0.167018   
C355     C      0.364540000000     0.967500000000     0.997080000000    -0.00306059 
C356     C      0.240490000000     0.023840000000     0.985330000000    -0.0538436  
C357     C      0.980130000000     0.008980000000     0.824990000000    -0.0311715  
C358     C      0.977200000000     0.985430000000     0.663890000000    -0.0285201  
C359     C      0.017730000000     0.027320000000     0.628030000000    -0.00966055 
C360     C      0.967590000000     0.994550000000     0.630620000000    -0.0102563  
C361     C      0.002650000000     0.035930000000     0.728940000000    -0.0532566  
C362     C      0.007380000000     0.978210000000     0.759570000000    -0.0547578  
C363     C      0.000570000000     0.008210000000     0.711480000000     0.0614307  
C364     C      0.025240000000     0.015480000000     0.660940000000    -0.0293754  
C365     C      0.009530000000     0.006210000000     0.776980000000     0.0624393  
C366     C      0.029410000000     0.981150000000     0.825170000000    -0.0768878  
C367     C      0.007450000000     0.034940000000     0.761210000000    -0.0523543  
C368     C      0.035400000000     0.988400000000     0.859940000000     0.166257   
C369     C      0.983650000000     0.019080000000     0.859020000000    -0.00110726 
C370     C      0.003900000000     0.979210000000     0.727010000000    -0.0548521  
C371     C      0.011130000000     0.984080000000     0.326100000000    -0.0314713  
C372     C      0.963730000000     0.985840000000     0.161090000000    -0.0286956  
C373     C      0.014140000000     0.022100000000     0.132460000000    -0.00953653 
C374     C      0.959710000000     0.998250000000     0.127810000000    -0.00996126 
C375     C      0.985960000000     0.969990000000     0.224580000000    -0.0550588  
C376     C      0.984300000000     0.021290000000     0.265320000000    -0.0551372  
C377     C      0.984820000000     0.000630000000     0.212270000000     0.0622209  
C378     C      0.015970000000     0.008090000000     0.165420000000    -0.029625   
C379     C      0.982770000000     0.990630000000     0.277540000000     0.0626476  
C380     C      0.958130000000     0.005040000000     0.327270000000    -0.0777616  
C381     C      0.984320000000     0.965150000000     0.256890000000    -0.0518855  
C382     C      0.952540000000     0.992910000000     0.360590000000     0.167048   
C383     C      0.007760000000     0.970670000000     0.359190000000    -0.00128996 
C384     C      0.984690000000     0.026110000000     0.232970000000    -0.0529715  
H1       H      0.542170000000     0.503680000000     0.718380000000     0.0456439  
H2       H      0.489420000000     0.452320000000     0.803190000000     0.0379285  
H3       H      0.462630000000     0.548060000000     0.807260000000     0.050583   
H4       H      0.519440000000     0.454650000000     0.627860000000     0.0408502  
H5       H      0.454160000000     0.457040000000     0.847140000000     0.0511101  
H6       H      0.512790000000     0.546950000000     0.666540000000     0.0354272  
H7       H      0.483120000000     0.452160000000     0.670930000000     0.0365177  
H8       H      0.510940000000     0.544910000000     0.607600000000     0.0434797  
H9       H      0.466120000000     0.546410000000     0.866310000000     0.00607192 
H10      H      0.531240000000     0.505390000000     0.774670000000     0.041967   
H11      H      0.492980000000     0.450150000000     0.861600000000     0.0451318  
H12      H      0.442850000000     0.504770000000     0.699220000000     0.0424636  
H13      H      0.516210000000     0.480640000000     0.819710000000     0.0389139  
H14      H      0.480710000000     0.449780000000     0.612360000000     0.0464142  
H15      H      0.474850000000     0.536100000000     0.651330000000     0.0392921  
H16      H      0.457770000000     0.481190000000     0.653420000000     0.0389937  
H17      H      0.431930000000     0.503670000000     0.755530000000     0.0497782  
H18      H      0.500450000000     0.536390000000     0.821930000000     0.048286   
H19      H      0.540330000000     0.520180000000     0.624880000000     0.0423212  
H20      H      0.419120000000     0.541820000000     0.847140000000     0.141508   
H21      H      0.505140000000     0.520680000000     0.265790000000     0.0422236  
H22      H      0.458350000000     0.455380000000     0.168550000000     0.0369847  
H23      H      0.549800000000     0.494310000000     0.165650000000     0.0517728  
H24      H      0.522470000000     0.432940000000     0.353120000000     0.0431758  
H25      H      0.480020000000     0.437680000000     0.119640000000     0.0501358  
H26      H      0.456040000000     0.490820000000     0.304380000000     0.0362251  
H27      H      0.547700000000     0.452340000000     0.306480000000     0.0364412  
H28      H      0.459220000000     0.501540000000     0.362270000000     0.0470646  
H29      H      0.541460000000     0.507680000000     0.108230000000     0.00751643 
H30      H      0.505660000000     0.522000000000     0.208880000000     0.0415075  
H31      H      0.451270000000     0.467280000000     0.111400000000     0.0423618  
H32      H      0.501500000000     0.419620000000     0.263740000000     0.0469256  
H33      H      0.464000000000     0.496130000000     0.159010000000     0.039053   
H34      H      0.550530000000     0.462130000000     0.364610000000     0.0446408  
H35      H      0.488830000000     0.514850000000     0.316220000000     0.0392347  
H36      H      0.541400000000     0.492740000000     0.317120000000     0.0405736  
H37      H      0.504690000000     0.420850000000     0.206290000000     0.0488763  
H38      H      0.516130000000     0.518220000000     0.156790000000     0.0465308  
H39      H      0.457710000000     0.460890000000     0.351950000000     0.0420184  
H40      H      0.571250000000     0.467690000000     0.117390000000     0.141347   
H41      H      0.448340000000     0.749460000000     0.530250000000     0.0457736  
H42      H      0.532590000000     0.669950000000     0.503790000000     0.0372427  
H43      H      0.453780000000     0.665340000000     0.443360000000     0.0513471  
H44      H      0.483520000000     0.842530000000     0.551450000000     0.0408512  
H45      H      0.542050000000     0.627240000000     0.467800000000     0.050196   
H46      H      0.439180000000     0.806120000000     0.469990000000     0.0362735  
H47      H      0.515030000000     0.798820000000     0.533790000000     0.0362199  
H48      H      0.442540000000     0.864510000000     0.471780000000     0.0463127  
H49      H      0.454710000000     0.605970000000     0.447090000000     0.0068316  
H50      H      0.455830000000     0.694020000000     0.516710000000     0.0417238  
H51      H      0.535170000000     0.611860000000     0.506240000000     0.0449846  
H52      H      0.512110000000     0.776120000000     0.456570000000     0.0431736  
H53      H      0.496650000000     0.652480000000     0.517720000000     0.0391189  
H54      H      0.519580000000     0.857490000000     0.535690000000     0.045781   
H55      H      0.477160000000     0.821020000000     0.458770000000     0.0401295  
H56      H      0.521590000000     0.816550000000     0.496020000000     0.0401241  
H57      H      0.519470000000     0.720690000000     0.442920000000     0.0493726  
H58      H      0.450710000000     0.649870000000     0.482420000000     0.0473221  
H59      H      0.432010000000     0.847060000000     0.508520000000     0.040787   
H60      H      0.475180000000     0.625630000000     0.404910000000     0.141337   
H61      H      0.465520000000     0.270940000000     0.461590000000     0.0432441  
H62      H      0.524540000000     0.164390000000     0.458240000000     0.0374224  
H63      H      0.454740000000     0.169420000000     0.528710000000     0.0516782  
H64      H      0.550360000000     0.349080000000     0.491940000000     0.0417102  
H65      H      0.491970000000     0.119130000000     0.449780000000     0.0497053  
H66      H      0.469200000000     0.306070000000     0.533400000000     0.0366504  
H67      H      0.538520000000     0.302530000000     0.462390000000     0.0363028  
H68      H      0.464800000000     0.364360000000     0.526480000000     0.0475087  
H69      H      0.458980000000     0.110780000000     0.536620000000     0.00672762 
H70      H      0.457830000000     0.213980000000     0.458140000000     0.0498973  
H71      H      0.528520000000     0.106160000000     0.466000000000     0.0437622  
H72      H      0.535780000000     0.257130000000     0.532890000000     0.045955   
H73      H      0.533770000000     0.152840000000     0.497790000000     0.0380475  
H74      H      0.534100000000     0.360960000000     0.455080000000     0.0456159  
H75      H      0.459500000000     0.318060000000     0.494090000000     0.0404352  
H76      H      0.499520000000     0.315950000000     0.453050000000     0.0394557  
H77      H      0.528040000000     0.200170000000     0.529480000000     0.0417219  
H78      H      0.493360000000     0.155370000000     0.538240000000     0.0472389  
H79      H      0.501640000000     0.351400000000     0.542090000000     0.0418499  
H80      H      0.418890000000     0.126270000000     0.509600000000     0.14125    
H81      H      0.539080000000     0.720920000000     0.965150000000     0.0458708  
H82      H      0.534800000000     0.811480000000     0.043830000000     0.0373825  
H83      H      0.461410000000     0.809840000000     0.976910000000     0.0515713  
H84      H      0.547990000000     0.624660000000     0.998650000000     0.0411483  
H85      H      0.503630000000     0.857070000000     0.055190000000     0.0503313  
H86      H      0.469700000000     0.678270000000     0.963580000000     0.0361371  
H87      H      0.540650000000     0.669090000000     0.032460000000     0.0360436  
H88      H      0.460580000000     0.620280000000     0.964900000000     0.0459584  
H89      H      0.466500000000     0.868550000000     0.970360000000     0.00711997 
H90      H      0.534180000000     0.777870000000     0.971840000000     0.0414978  
H91      H      0.539590000000     0.869800000000     0.037480000000     0.0440004  
H92      H      0.471370000000     0.706420000000     0.038740000000     0.0427836  
H93      H      0.542240000000     0.824010000000     0.004190000000     0.038072   
H94      H      0.531000000000     0.610660000000     0.034430000000     0.0446464  
H95      H      0.460020000000     0.663230000000     0.001850000000     0.0396739  
H96      H      0.500830000000     0.658160000000     0.041610000000     0.0384325  
H97      H      0.466530000000     0.763380000000     0.045490000000     0.0500001  
H98      H      0.499790000000     0.823400000000     0.965810000000     0.047086   
H99      H      0.497990000000     0.631680000000     0.949440000000     0.0418919  
H100     H      0.427470000000     0.853160000000     0.998920000000     0.141322   
H101     H      0.529700000000     0.282480000000     0.022690000000     0.0435978  
H102     H      0.471470000000     0.176690000000     0.039620000000     0.038002   
H103     H      0.540450000000     0.174040000000     0.968150000000     0.0518053  
H104     H      0.442290000000     0.354450000000     0.985510000000     0.0420436  
H105     H      0.504500000000     0.132530000000     0.052040000000     0.0519594  
H106     H      0.524380000000     0.310800000000     0.948350000000     0.0364758  
H107     H      0.455110000000     0.311240000000     0.019540000000     0.0369424  
H108     H      0.527130000000     0.369640000000     0.950370000000     0.0459137  
H109     H      0.536600000000     0.115160000000     0.966710000000     0.00833885 
H110     H      0.537900000000     0.226380000000     0.032670000000     0.0504012  
H111     H      0.467440000000     0.118010000000     0.038400000000     0.0449012  
H112     H      0.458430000000     0.259960000000     0.954670000000     0.0465584  
H113     H      0.461550000000     0.160970000000     0.001690000000     0.0392203  
H114     H      0.457160000000     0.369860000000     0.021670000000     0.0469772  
H115     H      0.533870000000     0.326290000000     0.986480000000     0.0396838  
H116     H      0.493640000000     0.326670000000     0.027740000000     0.0406471  
H117     H      0.466630000000     0.203870000000     0.964630000000     0.0421703  
H118     H      0.501750000000     0.159020000000     0.960470000000     0.0482898  
H119     H      0.490530000000     0.354400000000     0.936250000000     0.0425399  
H120     H      0.576300000000     0.133540000000     0.992490000000     0.141715   
H121     H      0.548840000000     0.991320000000     0.730730000000     0.0451777  
H122     H      0.469290000000     0.951280000000     0.823290000000     0.036425   
H123     H      0.512660000000     0.040820000000     0.823120000000     0.0516358  
H124     H      0.541730000000     0.971540000000     0.640820000000     0.0418982  
H125     H      0.448340000000     0.978660000000     0.868210000000     0.0506334  
H126     H      0.482480000000     0.039550000000     0.683430000000     0.0363698  
H127     H      0.518930000000     0.947040000000     0.686590000000     0.0352361  
H128     H      0.476030000000     0.035320000000     0.625140000000     0.045989   
H129     H      0.519080000000     0.037590000000     0.881790000000     0.00799446 
H130     H      0.543120000000     0.991010000000     0.787650000000     0.04151    
H131     H      0.474500000000     0.948550000000     0.881750000000     0.0421789  
H132     H      0.448130000000     0.992730000000     0.720750000000     0.0424946  
H133     H      0.509200000000     0.955520000000     0.836620000000     0.0389597  
H134     H      0.513700000000     0.942670000000     0.628270000000     0.0441262  
H135     H      0.458330000000     0.007100000000     0.670830000000     0.0390527  
H136     H      0.479420000000     0.953630000000     0.673010000000     0.0399893  
H137     H      0.442500000000     0.995490000000     0.777630000000     0.0480806  
H138     H      0.533920000000     0.007150000000     0.837280000000     0.0471317  
H139     H      0.515940000000     0.034880000000     0.638220000000     0.0403227  
H140     H      0.480620000000     0.066520000000     0.865740000000     0.140913   
H141     H      0.449220000000     0.982010000000     0.278430000000     0.0420986  
H142     H      0.529990000000     0.946750000000     0.184000000000     0.0374014  
H143     H      0.483280000000     0.034550000000     0.188110000000     0.0522152  
H144     H      0.534040000000     0.994950000000     0.370930000000     0.0461069  
H145     H      0.551600000000     0.978030000000     0.142040000000     0.0523158  
H146     H      0.468020000000     0.936260000000     0.322060000000     0.0363064  
H147     H      0.519570000000     0.021260000000     0.323490000000     0.0366038  
H148     H      0.453370000000     0.945780000000     0.379600000000     0.0452278  
H149     H      0.478400000000     0.034150000000     0.128930000000     0.00949174 
H150     H      0.454330000000     0.987670000000     0.222160000000     0.0423981  
H151     H      0.527490000000     0.947580000000     0.125720000000     0.0446836  
H152     H      0.549880000000     0.975430000000     0.287150000000     0.0474001  
H153     H      0.490490000000     0.950630000000     0.169440000000     0.041613   
H154     H      0.508680000000     0.027070000000     0.380650000000     0.045285   
H155     H      0.448900000000     0.972950000000     0.330950000000     0.0375909  
H156     H      0.478360000000     0.020700000000     0.332800000000     0.0404043  
H157     H      0.555180000000     0.984080000000     0.230620000000     0.0490211  
H158     H      0.463820000000     0.000900000000     0.171490000000     0.0486768  
H159     H      0.492770000000     0.933720000000     0.371900000000     0.043084   
H160     H      0.514670000000     0.064270000000     0.147710000000     0.14287    
H161     H      0.725030000000     0.490250000000     0.458940000000     0.0418574  
H162     H      0.822390000000     0.454310000000     0.532140000000     0.0372635  
H163     H      0.815940000000     0.545900000000     0.493870000000     0.0517002  
H164     H      0.631880000000     0.505950000000     0.541270000000     0.043188   
H165     H      0.866900000000     0.482980000000     0.552420000000     0.0505722  
H166     H      0.684110000000     0.442030000000     0.483770000000     0.035986   
H167     H      0.679340000000     0.532080000000     0.525550000000     0.036146   
H168     H      0.626740000000     0.446490000000     0.468720000000     0.0457395  
H169     H      0.874470000000     0.545890000000     0.484620000000     0.0086975  
H170     H      0.781620000000     0.495480000000     0.462310000000     0.0419103  
H171     H      0.880550000000     0.454670000000     0.524400000000     0.0438294  
H172     H      0.718940000000     0.487680000000     0.559770000000     0.0464797  
H173     H      0.833660000000     0.461270000000     0.492040000000     0.0405299  
H174     H      0.622080000000     0.535230000000     0.512710000000     0.0446751  
H175     H      0.673970000000     0.475860000000     0.460450000000     0.0380749  
H176     H      0.671110000000     0.527150000000     0.484450000000     0.0401719  
H177     H      0.775920000000     0.495780000000     0.563180000000     0.0486731  
H178     H      0.830610000000     0.514160000000     0.470160000000     0.0479433  
H179     H      0.634300000000     0.442000000000     0.509690000000     0.0415605  
H180     H      0.858930000000     0.571780000000     0.525360000000     0.141165   
H181     H      0.228310000000     0.540530000000     0.490410000000     0.0458417  
H182     H      0.318750000000     0.495910000000     0.440780000000     0.0376384  
H183     H      0.318770000000     0.463460000000     0.534650000000     0.0507082  
H184     H      0.135610000000     0.510130000000     0.444720000000     0.0427992  
H185     H      0.363660000000     0.462030000000     0.444610000000     0.0490974  
H186     H      0.182830000000     0.512000000000     0.534710000000     0.035423   
H187     H      0.179370000000     0.475010000000     0.442660000000     0.0365125  
H188     H      0.123940000000     0.509670000000     0.537860000000     0.0439117  
H189     H      0.377860000000     0.468550000000     0.536140000000     0.00549288 
H190     H      0.285150000000     0.532790000000     0.491760000000     0.0418822  
H191     H      0.377310000000     0.501670000000     0.442410000000     0.0444074  
H192     H      0.214730000000     0.440290000000     0.490440000000     0.0423916  
H193     H      0.333070000000     0.521050000000     0.471660000000     0.0381066  
H194     H      0.120350000000     0.471080000000     0.446670000000     0.0462235  
H195     H      0.167050000000     0.473400000000     0.527780000000     0.03935    
H196     H      0.164960000000     0.452180000000     0.475230000000     0.0380604  
H197     H      0.271590000000     0.432610000000     0.488910000000     0.0497549  
H198     H      0.333090000000     0.502120000000     0.525680000000     0.0482067  
H199     H      0.138920000000     0.537690000000     0.510320000000     0.0436681  
H200     H      0.360190000000     0.421370000000     0.528900000000     0.141266   
H201     H      0.713240000000     0.547960000000     0.958830000000     0.0452417  
H202     H      0.815730000000     0.516070000000     0.917910000000     0.0373652  
H203     H      0.802150000000     0.475760000000     0.007650000000     0.0516452  
H204     H      0.618300000000     0.508160000000     0.922830000000     0.0410709  
H205     H      0.862430000000     0.485830000000     0.926100000000     0.0486961  
H206     H      0.676140000000     0.515260000000     0.006250000000     0.0362769  
H207     H      0.665210000000     0.478150000000     0.914810000000     0.0361928  
H208     H      0.619010000000     0.507380000000     0.016570000000     0.0458514  
H209     H      0.859330000000     0.483600000000     0.019660000000     0.00651166 
H210     H      0.770430000000     0.545710000000     0.961090000000     0.0415928  
H211     H      0.872800000000     0.526150000000     0.931440000000     0.0435301  
H212     H      0.709350000000     0.446890000000     0.957690000000     0.0423915  
H213     H      0.822360000000     0.539100000000     0.952740000000     0.0371533  
H214     H      0.607730000000     0.467690000000     0.926370000000     0.0454266  
H215     H      0.663620000000     0.475270000000     0.000780000000     0.0410738  
H216     H      0.657590000000     0.453840000000     0.948550000000     0.038239   
H217     H      0.766600000000     0.444700000000     0.957280000000     0.0499221  
H218     H      0.815240000000     0.515660000000     0.003870000000     0.0493752  
H219     H      0.627320000000     0.536290000000     0.987170000000     0.0425576  
H220     H      0.846420000000     0.436320000000     0.006260000000     0.142119   
H221     H      0.215870000000     0.494950000000     0.047710000000     0.0455082  
H222     H      0.306880000000     0.540100000000     0.971090000000     0.0374446  
H223     H      0.308900000000     0.447810000000     0.007850000000     0.0523418  
H224     H      0.125560000000     0.514290000000     0.040940000000     0.0424333  
H225     H      0.352500000000     0.516330000000     0.947840000000     0.0530556  
H226     H      0.168850000000     0.445310000000     0.983130000000     0.0368979  
H227     H      0.170520000000     0.538860000000     0.016730000000     0.0358312  
H228     H      0.110130000000     0.448610000000     0.976720000000     0.0472081  
H229     H      0.367710000000     0.452160000000     0.014380000000     0.00873444 
H230     H      0.272870000000     0.497330000000     0.041370000000     0.0417883  
H231     H      0.365670000000     0.543720000000     0.976890000000     0.0424323  
H232     H      0.204810000000     0.493540000000     0.947330000000     0.0435097  
H233     H      0.320550000000     0.533140000000     0.010420000000     0.0393974  
H234     H      0.112050000000     0.541880000000     0.012170000000     0.0455123  
H235     H      0.155460000000     0.476830000000     0.958270000000     0.0403981  
H236     H      0.156510000000     0.530710000000     0.977740000000     0.0405995  
H237     H      0.261860000000     0.493110000000     0.941080000000     0.0496864  
H238     H      0.322510000000     0.480260000000     0.031150000000     0.0467784  
H239     H      0.123560000000     0.449500000000     0.016440000000     0.0416877  
H240     H      0.352240000000     0.424600000000     0.974830000000     0.141609   
H241     H      0.954810000000     0.505720000000     0.719670000000     0.0461754  
H242     H      0.995700000000     0.555880000000     0.813050000000     0.0375573  
H243     H      0.029830000000     0.462430000000     0.811590000000     0.0508555  
H244     H      0.986810000000     0.549820000000     0.626920000000     0.0432692  
H245     H      0.027670000000     0.550290000000     0.859350000000     0.0494443  
H246     H      0.986670000000     0.461130000000     0.676030000000     0.03642    
H247     H      0.019990000000     0.554700000000     0.672040000000     0.0363893  
H248     H      0.991760000000     0.456710000000     0.617590000000     0.0443604  
H249     H      0.022100000000     0.458700000000     0.869960000000     0.00651349 
H250     H      0.960580000000     0.504650000000     0.776640000000     0.042244   
H251     H      0.987400000000     0.552460000000     0.871080000000     0.0448584  
H252     H      0.055470000000     0.508260000000     0.709640000000     0.0422368  
H253     H      0.970220000000     0.524260000000     0.825020000000     0.0387508  
H254     H      0.026600000000     0.549730000000     0.613500000000     0.0460745  
H255     H      0.025690000000     0.469240000000     0.661920000000     0.0397025  
H256     H      0.044860000000     0.522840000000     0.659490000000     0.0381831  
H257     H      0.061120000000     0.509970000000     0.766630000000     0.0494146  
H258     H      0.990260000000     0.470040000000     0.824140000000     0.0495779  
H259     H      0.962180000000     0.483740000000     0.630470000000     0.0442603  
H260     H      0.069800000000     0.468500000000     0.855010000000     0.141268   
H261     H      0.979540000000     0.451320000000     0.222510000000     0.0458716  
H262     H      0.938350000000     0.528860000000     0.314680000000     0.0374544  
H263     H      0.033210000000     0.499630000000     0.307960000000     0.0520427  
H264     H      0.959940000000     0.456350000000     0.130030000000     0.04245    
H265     H      0.965410000000     0.554060000000     0.357660000000     0.0531282  
H266     H      0.030920000000     0.510600000000     0.174890000000     0.0365834  
H267     H      0.935290000000     0.483300000000     0.173370000000     0.0358196  
H268     H      0.030890000000     0.515020000000     0.116240000000     0.0459919  
H269     H      0.035680000000     0.493990000000     0.366510000000     0.00889616 
H270     H      0.979090000000     0.460470000000     0.279140000000     0.0423156  
H271     H      0.940740000000     0.523760000000     0.373400000000     0.0432904  
H272     H      0.980430000000     0.551160000000     0.206510000000     0.0428353  
H273     H      0.949360000000     0.490180000000     0.327730000000     0.0398241  
H274     H      0.935060000000     0.486640000000     0.114610000000     0.0444172  
H275     H      0.001830000000     0.537160000000     0.159400000000     0.0388756  
H276     H      0.946490000000     0.521370000000     0.158790000000     0.0397579  
H277     H      0.982690000000     0.560230000000     0.263120000000     0.0495054  
H278     H      0.004460000000     0.473590000000     0.324660000000     0.048132   
H279     H      0.026020000000     0.475910000000     0.130720000000     0.0407182  
H280     H      0.056280000000     0.536520000000     0.348080000000     0.141693   
H281     H      0.012250000000     0.775330000000     0.549330000000     0.0452663  
H282     H      0.057210000000     0.681920000000     0.503960000000     0.0378109  
H283     H      0.963020000000     0.687640000000     0.472410000000     0.0511265  
H284     H      0.049910000000     0.870900000000     0.517490000000     0.0402793  
H285     H      0.050480000000     0.637600000000     0.469690000000     0.0507214  
H286     H      0.964250000000     0.819070000000     0.523310000000     0.0358263  
H287     H      0.054750000000     0.826630000000     0.482680000000     0.0366478  
H288     H      0.957470000000     0.877250000000     0.520030000000     0.045116   
H289     H      0.958170000000     0.628930000000     0.476420000000     0.00733237 
H290     H      0.011050000000     0.718530000000     0.541630000000     0.0419459  
H291     H      0.052160000000     0.623360000000     0.509100000000     0.0447063  
H292     H      0.005910000000     0.788930000000     0.449450000000     0.0432825  
H293     H      0.025720000000     0.669120000000     0.529190000000     0.0381662  
H294     H      0.048060000000     0.885000000000     0.478030000000     0.0463884  
H295     H      0.968370000000     0.833920000000     0.483990000000     0.0413336  
H296     H      0.020760000000     0.838590000000     0.460430000000     0.0400586  
H297     H      0.007580000000     0.732180000000     0.441620000000     0.0504495  
H298     H      0.971520000000     0.672300000000     0.510720000000     0.0492895  
H299     H      0.988330000000     0.865160000000     0.546040000000     0.0418755  
H300     H      0.966560000000     0.646790000000     0.429590000000     0.142574   
H301     H      0.031600000000     0.221790000000     0.474700000000     0.0423111  
H302     H      0.971090000000     0.319580000000     0.519630000000     0.0367931  
H303     H      0.009190000000     0.324600000000     0.428150000000     0.051754   
H304     H      0.939650000000     0.137440000000     0.465250000000     0.0426359  
H305     H      0.953530000000     0.369180000000     0.499980000000     0.0497662  
H306     H      0.000330000000     0.188590000000     0.526750000000     0.0354264  
H307     H      0.961260000000     0.180630000000     0.435830000000     0.0360604  
H308     H      0.008100000000     0.130060000000     0.528590000000     0.0463479  
H309     H      0.024760000000     0.381790000000     0.439340000000     0.00665009 
H310     H      0.035280000000     0.278700000000     0.471430000000     0.0415219  
H311     H      0.983840000000     0.376160000000     0.528240000000     0.0428152  
H312     H      0.930680000000     0.228240000000     0.478230000000     0.0465277  
H313     H      0.011880000000     0.328810000000     0.513580000000     0.0382815  
H314     H      0.967770000000     0.122070000000     0.437980000000     0.0448745  
H315     H      0.023620000000     0.172820000000     0.495140000000     0.0387606  
H316     H      0.001120000000     0.168440000000     0.442930000000     0.0401447  
H317     H      0.934290000000     0.285430000000     0.472420000000     0.0487697  
H318     H      0.033460000000     0.331580000000     0.461880000000     0.045826   
H319     H      0.968000000000     0.142530000000     0.529100000000     0.041214   
H320     H      0.985850000000     0.374880000000     0.407630000000     0.141422   
H321     H      0.776850000000     0.957330000000     0.466970000000     0.0429569  
H322     H      0.672040000000     0.942270000000     0.530590000000     0.0373369  
H323     H      0.670170000000     0.013720000000     0.461640000000     0.0516167  
H324     H      0.855380000000     0.995920000000     0.548210000000     0.0415372  
H325     H      0.626370000000     0.931220000000     0.499200000000     0.0500129  
H326     H      0.804760000000     0.032110000000     0.469630000000     0.0363079  
H327     H      0.811730000000     0.961260000000     0.538830000000     0.0360655  
H328     H      0.863340000000     0.030850000000     0.462260000000     0.0457792  
H329     H      0.611530000000     0.017260000000     0.466940000000     0.00763601 
H330     H      0.720230000000     0.947800000000     0.462160000000     0.0497805  
H331     H      0.613340000000     0.946010000000     0.536300000000     0.0433658  
H332     H      0.759160000000     0.025670000000     0.539220000000     0.0458494  
H333     H      0.658110000000     0.980850000000     0.540760000000     0.0381061  
H334     H      0.870180000000     0.960030000000     0.532080000000     0.0458045  
H335     H      0.820040000000     0.994100000000     0.459220000000     0.0395689  
H336     H      0.824200000000     0.953110000000     0.499330000000     0.0394876  
H337     H      0.702560000000     0.016110000000     0.534450000000     0.0417447  
H338     H      0.656450000000     0.021960000000     0.500620000000     0.0477304  
H339     H      0.850730000000     0.045280000000     0.499640000000     0.0416254  
H340     H      0.627950000000     0.990820000000     0.426910000000     0.141522   
H341     H      0.253860000000     0.966360000000     0.540120000000     0.0459278  
H342     H      0.173870000000     0.984920000000     0.453830000000     0.0374749  
H343     H      0.170450000000     0.053100000000     0.526060000000     0.0512874  
H344     H      0.346960000000     0.943810000000     0.507760000000     0.0410515  
H345     H      0.130730000000     0.019700000000     0.441590000000     0.0502817  
H346     H      0.309950000000     0.027680000000     0.547200000000     0.036369   
H347     H      0.304210000000     0.960250000000     0.474520000000     0.0363466  
H348     H      0.368770000000     0.026010000000     0.544530000000     0.0464298  
H349     H      0.111400000000     0.050200000000     0.526060000000     0.0075858  
H350     H      0.198390000000     0.978180000000     0.530200000000     0.0419011  
H351     H      0.115440000000     0.982140000000     0.452690000000     0.0447767  
H352     H      0.280970000000     0.036860000000     0.473040000000     0.0433406  
H353     H      0.156980000000     0.974480000000     0.491130000000     0.039128   
H354     H      0.362790000000     0.957870000000     0.471480000000     0.0463684  
H355     H      0.325530000000     0.037010000000     0.509060000000     0.0403596  
H356     H      0.322280000000     0.997690000000     0.466760000000     0.0403085  
H357     H      0.225470000000     0.048620000000     0.463020000000     0.0493999  
H358     H      0.154810000000     0.014590000000     0.533330000000     0.0479231  
H359     H      0.351070000000     0.990100000000     0.557500000000     0.0415065  
H360     H      0.131170000000     0.089280000000     0.500220000000     0.140992   
H361     H      0.943710000000     0.730160000000     0.005490000000     0.0455736  
H362     H      0.029140000000     0.815030000000     0.961610000000     0.0366563  
H363     H      0.990000000000     0.820440000000     0.052810000000     0.0517654  
H364     H      0.942420000000     0.640020000000     0.986030000000     0.0415356  
H365     H      0.053880000000     0.859360000000     0.987120000000     0.0509628  
H366     H      0.007250000000     0.676540000000     0.051810000000     0.0366808  
H367     H      0.967890000000     0.684160000000     0.960860000000     0.0351749  
H368     H      0.008570000000     0.617870000000     0.046700000000     0.0455721  
H369     H      0.987610000000     0.879290000000     0.048320000000     0.00893628 
H370     H      0.954230000000     0.786460000000     0.004200000000     0.0416738  
H371     H      0.027920000000     0.873570000000     0.957130000000     0.042681   
H372     H      0.043210000000     0.711680000000     0.004840000000     0.0430161  
H373     H      0.990370000000     0.831110000000     0.966880000000     0.0397715  
H374     H      0.967780000000     0.625760000000     0.955560000000     0.0449026  
H375     H      0.029210000000     0.662500000000     0.018440000000     0.0397731  
H376     H      0.006360000000     0.667240000000     0.965700000000     0.0399162  
H377     H      0.053700000000     0.767990000000     0.006580000000     0.0482652  
H378     H      0.967980000000     0.835050000000     0.019870000000     0.0478326  
H379     H      0.969870000000     0.634250000000     0.047410000000     0.0403497  
H380     H      0.026920000000     0.861200000000     0.074870000000     0.141023   
H381     H      0.929190000000     0.271160000000     0.990390000000     0.0460663  
H382     H      0.011650000000     0.182290000000     0.037050000000     0.0360434  
H383     H      0.968090000000     0.178240000000     0.947870000000     0.0524057  
H384     H      0.933240000000     0.363060000000     0.007180000000     0.0445312  
H385     H      0.035890000000     0.138480000000     0.010930000000     0.0512724  
H386     H      0.997030000000     0.318150000000     0.945240000000     0.0371801  
H387     H      0.954920000000     0.318680000000     0.035250000000     0.0359381  
H388     H      0.002010000000     0.376650000000     0.946720000000     0.0462482  
H389     H      0.965120000000     0.119040000000     0.952640000000     0.00813688 
H390     H      0.936500000000     0.214380000000     0.992460000000     0.041793   
H391     H      0.010100000000     0.123470000000     0.040570000000     0.0422545  
H392     H      0.029330000000     0.284230000000     0.996710000000     0.0427257  
H393     H      0.972770000000     0.166260000000     0.032860000000     0.0391608  
H394     H      0.959140000000     0.377420000000     0.037150000000     0.0445685  
H395     H      0.018990000000     0.332790000000     0.978340000000     0.0390097  
H396     H      0.994600000000     0.332580000000     0.030620000000     0.0403704  
H397     H      0.036840000000     0.227450000000     0.995660000000     0.0480674  
H398     H      0.948150000000     0.163370000000     0.981980000000     0.0468233  
H399     H      0.962340000000     0.362830000000     0.946060000000     0.0420875  
H400     H      0.001290000000     0.136720000000     0.921870000000     0.142809   
H401     H      0.788590000000     0.019540000000     0.020770000000     0.0429607  
H402     H      0.681870000000     0.027040000000     0.960720000000     0.0374124  
H403     H      0.684940000000     0.957750000000     0.031730000000     0.0518427  
H404     H      0.865690000000     0.986520000000     0.936820000000     0.0406397  
H405     H      0.637460000000     0.038720000000     0.993110000000     0.051753   
H406     H      0.821220000000     0.945750000000     0.015780000000     0.035951   
H407     H      0.819720000000     0.017960000000     0.947540000000     0.0360185  
H408     H      0.879490000000     0.951020000000     0.020740000000     0.046221   
H409     H      0.625890000000     0.952650000000     0.028740000000     0.00718638 
H410     H      0.731850000000     0.025670000000     0.028260000000     0.0508579  
H411     H      0.623060000000     0.021310000000     0.957740000000     0.0437978  
H412     H      0.771650000000     0.949240000000     0.950190000000     0.0453918  
H413     H      0.668400000000     0.987790000000     0.952700000000     0.0374404  
H414     H      0.877940000000     0.023880000000     0.951790000000     0.0458804  
H415     H      0.833760000000     0.984660000000     0.026610000000     0.0395339  
H416     H      0.832950000000     0.026930000000     0.986650000000     0.0393966  
H417     H      0.714850000000     0.955200000000     0.957900000000     0.0414364  
H418     H      0.669630000000     0.948320000000     0.993640000000     0.0463276  
H419     H      0.866730000000     0.937740000000     0.982930000000     0.0408241  
H420     H      0.643480000000     0.979210000000     0.068170000000     0.143153   
H421     H      0.232480000000     0.040460000000     0.967910000000     0.0472     
H422     H      0.317740000000     0.958050000000     0.980510000000     0.0379331  
H423     H      0.321020000000     0.030580000000     0.048280000000     0.0519132  
H424     H      0.139910000000     0.004570000000     0.950900000000     0.0438582  
H425     H      0.362820000000     0.946580000000     0.012530000000     0.0525348  
H426     H      0.180480000000     0.043680000000     0.033570000000     0.0369879  
H427     H      0.185000000000     0.973060000000     0.963900000000     0.0369818  
H428     H      0.121810000000     0.038170000000     0.035630000000     0.0464064  
H429     H      0.379950000000     0.032920000000     0.042640000000     0.0079038  
H430     H      0.289010000000     0.033010000000     0.975990000000     0.0426894  
H431     H      0.376220000000     0.959990000000     0.975050000000     0.04584    
H432     H      0.213170000000     0.971230000000     0.038920000000     0.0435138  
H433     H      0.332660000000     0.996140000000     0.969800000000     0.0395412  
H434     H      0.126540000000     0.967410000000     0.965330000000     0.0473466  
H435     H      0.167180000000     0.004570000000     0.042590000000     0.0397125  
H436     H      0.169710000000     0.963620000000     0.002130000000     0.041042   
H437     H      0.269700000000     0.963820000000     0.047030000000     0.0503107  
H438     H      0.334890000000     0.037930000000     0.009190000000     0.0484788  
H439     H      0.136580000000     0.053450000000     0.999370000000     0.0435022  
H440     H      0.363020000000     0.007850000000     0.083390000000     0.141542   
H441     H      0.003130000000     0.957290000000     0.714350000000     0.0410726  
H442     H      0.965560000000     0.026900000000     0.812820000000     0.0365389  
H443     H      0.052290000000     0.978220000000     0.812960000000     0.0518882  
H444     H      0.008360000000     0.051600000000     0.629710000000     0.0428851  
H445     H      0.991630000000     0.043900000000     0.859680000000     0.0510432  
H446     H      0.955580000000     0.981140000000     0.677860000000     0.0354944  
H447     H      0.040090000000     0.033410000000     0.672750000000     0.0357596  
H448     H      0.957050000000     0.973710000000     0.619060000000     0.0454848  
H449     H      0.043970000000     0.966420000000     0.871280000000     0.0070337  
H450     H      0.008360000000     0.955550000000     0.770860000000     0.0410443  
H451     H      0.960150000000     0.018070000000     0.870310000000     0.0422829  
H452     H      0.000520000000     0.058440000000     0.717400000000     0.0459452  
H453     H      0.967530000000     0.986130000000     0.823620000000     0.0390018  
H454     H      0.039940000000     0.028350000000     0.614390000000     0.0440657  
H455     H      0.990910000000     0.963240000000     0.662780000000     0.0379701  
H456     H      0.038930000000     0.993270000000     0.659640000000     0.039948   
H457     H      0.008730000000     0.056710000000     0.774210000000     0.0484184  
H458     H      0.016470000000     0.958530000000     0.823570000000     0.0457332  
H459     H      0.949010000000     0.012790000000     0.632040000000     0.0410551  
H460     H      0.079200000000     0.001170000000     0.860300000000     0.141716   
H461     H      0.984820000000     0.049830000000     0.223930000000     0.0457876  
H462     H      0.027780000000     0.968960000000     0.312870000000     0.0371106  
H463     H      0.935340000000     0.005910000000     0.314580000000     0.0518896  
H464     H      0.007670000000     0.047280000000     0.134360000000     0.0419775  
H465     H      0.001610000000     0.945390000000     0.357430000000     0.0510499  
H466     H      0.940220000000     0.984450000000     0.172330000000     0.0366611  
H467     H      0.031550000000     0.023260000000     0.179850000000     0.0358506  
H468     H      0.946310000000     0.980700000000     0.113980000000     0.046125   
H469     H      0.938440000000     0.010890000000     0.373320000000     0.00830505 
H470     H      0.984570000000     0.041530000000     0.280530000000     0.0423387  
H471     H      0.030840000000     0.972470000000     0.371200000000     0.0436466  
H472     H      0.987450000000     0.949760000000     0.209410000000     0.0428433  
H473     H      0.021160000000     0.008170000000     0.327250000000     0.0401655  
H474     H      0.037800000000     0.020740000000     0.121560000000     0.0449687  
H475     H      0.973700000000     0.961760000000     0.159720000000     0.0395312  
H476     H      0.026540000000     0.984220000000     0.164410000000     0.0408446  
H477     H      0.984180000000     0.941430000000     0.265940000000     0.0485758  
H478     H      0.967420000000     0.029370000000     0.328960000000     0.0483122  
H479     H      0.945350000000     0.019990000000     0.128750000000     0.0405423  
H480     H      0.913210000000     0.970210000000     0.356340000000     0.141298   
N1       N      0.474630000000     0.497000000000     0.868060000000    -0.172649   
N2       N      0.473050000000     0.499520000000     0.802110000000    -0.100596   
N3       N      0.501110000000     0.498750000000     0.671860000000    -0.113353   
N4       N      0.501780000000     0.495400000000     0.605960000000    -0.158262   
N5       N      0.499320000000     0.480690000000     0.104220000000    -0.172485   
N6       N      0.505920000000     0.470670000000     0.169200000000    -0.100431   
N7       N      0.500360000000     0.467800000000     0.302940000000    -0.113003   
N8       N      0.502110000000     0.475440000000     0.368520000000    -0.157105   
N9       N      0.498070000000     0.604730000000     0.472350000000    -0.172606   
N10      N      0.494860000000     0.670930000000     0.471150000000    -0.101034   
N11      N      0.475140000000     0.799130000000     0.503830000000    -0.1136     
N12      N      0.478150000000     0.865240000000     0.507800000000    -0.158035   
N13      N      0.488460000000     0.103670000000     0.496700000000    -0.173196   
N14      N      0.486980000000     0.169580000000     0.490640000000    -0.100647   
N15      N      0.506460000000     0.301550000000     0.500550000000    -0.113371   
N16      N      0.504450000000     0.367500000000     0.495360000000    -0.157677   
N17      N      0.498080000000     0.873900000000     0.008940000000    -0.173125   
N18      N      0.495520000000     0.808040000000     0.013290000000    -0.100422   
N19      N      0.508050000000     0.676330000000     0.995450000000    -0.114066   
N20      N      0.500600000000     0.610750000000     0.994240000000    -0.158667   
N21      N      0.506560000000     0.112290000000     0.006890000000    -0.172517   
N22      N      0.508440000000     0.178370000000     0.006180000000    -0.0997474  
N23      N      0.487370000000     0.307970000000     0.981660000000    -0.113519   
N24      N      0.487680000000     0.374050000000     0.981600000000    -0.158161   
N25      N      0.491200000000     0.995930000000     0.886260000000    -0.173083   
N26      N      0.487560000000     0.997660000000     0.820420000000    -0.100452   
N27      N      0.503970000000     0.994650000000     0.687830000000    -0.113306   
N28      N      0.500050000000     0.990830000000     0.622110000000    -0.158202   
N29      N      0.508710000000     0.994420000000     0.123220000000    -0.172449   
N30      N      0.510080000000     0.992360000000     0.188960000000    -0.100127   
N31      N      0.498020000000     0.976160000000     0.320940000000    -0.112471   
N32      N      0.488720000000     0.981130000000     0.385700000000    -0.157789   
N33      N      0.882130000000     0.502950000000     0.509700000000    -0.172986   
N34      N      0.816480000000     0.501380000000     0.516560000000    -0.100554   
N35      N      0.683820000000     0.485250000000     0.508740000000    -0.113041   
N36      N      0.618920000000     0.487410000000     0.497200000000    -0.158145   
N37      N      0.381940000000     0.478960000000     0.487380000000    -0.173163   
N38      N      0.315960000000     0.476180000000     0.486530000000    -0.100536   
N39      N      0.183890000000     0.497170000000     0.487120000000    -0.113033   
N40      N      0.117990000000     0.497940000000     0.489320000000    -0.157918   
N41      N      0.871400000000     0.497940000000     0.973240000000    -0.172539   
N42      N      0.806740000000     0.491990000000     0.960660000000    -0.0999477  
N43      N      0.673030000000     0.500590000000     0.958650000000    -0.112939   
N44      N      0.608040000000     0.494270000000     0.969200000000    -0.157834   
N45      N      0.371260000000     0.495040000000     0.988460000000    -0.17229    
N46      N      0.305260000000     0.492410000000     0.985650000000    -0.10036    
N47      N      0.172520000000     0.490830000000     0.003360000000    -0.112596   
N48      N      0.106500000000     0.493130000000     0.000390000000    -0.156406   
N49      N      0.009480000000     0.507010000000     0.875190000000    -0.172794   
N50      N      0.016000000000     0.510370000000     0.809510000000    -0.100722   
N51      N      0.999640000000     0.509340000000     0.676750000000    -0.112105   
N52      N      0.002220000000     0.505540000000     0.610920000000    -0.157665   
N53      N      0.990300000000     0.514490000000     0.374230000000    -0.17177    
N54      N      0.986530000000     0.517570000000     0.308330000000    -0.100046   
N55      N      0.983950000000     0.493680000000     0.177140000000    -0.11307    
N56      N      0.984700000000     0.494930000000     0.111120000000    -0.157947   
N57      N      0.006750000000     0.621710000000     0.486760000000    -0.172511   
N58      N      0.011440000000     0.687630000000     0.484760000000    -0.100419   
N59      N      0.011100000000     0.819920000000     0.506030000000    -0.11347    
N60      N      0.004590000000     0.885700000000     0.503990000000    -0.157944   
N61      N      0.996250000000     0.384980000000     0.480270000000    -0.172165   
N62      N      0.985540000000     0.320390000000     0.471850000000    -0.100669   
N63      N      0.977210000000     0.187350000000     0.482560000000    -0.113424   
N64      N      0.981620000000     0.121570000000     0.486380000000    -0.15732    
N65      N      0.607770000000     0.977130000000     0.496980000000    -0.172422   
N66      N      0.674040000000     0.975540000000     0.493530000000    -0.100487   
N67      N      0.805280000000     0.998960000000     0.506880000000    -0.113328   
N68      N      0.871390000000     0.000270000000     0.501570000000    -0.157682   
N69      N      0.109190000000     0.019640000000     0.486200000000    -0.172784   
N70      N      0.175500000000     0.021070000000     0.488160000000    -0.100916   
N71      N      0.303770000000     0.991950000000     0.512990000000    -0.113393   
N72      N      0.369920000000     0.987560000000     0.511790000000    -0.157422   
N73      N      0.012630000000     0.880650000000     0.004660000000    -0.172379   
N74      N      0.012490000000     0.814610000000     0.008600000000    -0.10029    
N75      N      0.984790000000     0.683510000000     0.007770000000    -0.112928   
N76      N      0.983360000000     0.617590000000     0.002830000000    -0.157558   
N77      N      0.994800000000     0.117150000000     0.993060000000    -0.172672   
N78      N      0.993490000000     0.183130000000     0.990590000000    -0.100572   
N79      N      0.973010000000     0.315390000000     0.988930000000    -0.113481   
N80      N      0.975930000000     0.381410000000     0.989850000000    -0.157843   
N81      N      0.620070000000     0.992670000000     0.999130000000    -0.172572   
N82      N      0.686090000000     0.995370000000     0.998980000000    -0.100648   
N83      N      0.817450000000     0.979710000000     0.979460000000    -0.113972   
N84      N      0.883420000000     0.984410000000     0.982990000000    -0.158248   
N85      N      0.382590000000     0.992050000000     0.013600000000    -0.171791   
N86      N      0.316480000000     0.991950000000     0.017050000000    -0.100291   
N87      N      0.185720000000     0.010840000000     0.996430000000    -0.113733   
N88      N      0.119640000000     0.006980000000     0.996000000000    -0.15754    
N89      N      0.006690000000     0.999550000000     0.876030000000    -0.173157   
N90      N      0.011350000000     0.006780000000     0.810790000000    -0.100753   
N91      N      0.995790000000     0.010800000000     0.678040000000    -0.112551   
N92      N      0.994140000000     0.007370000000     0.612340000000    -0.158269   
N93      N      0.982740000000     0.987070000000     0.376610000000    -0.17279    
N94      N      0.980320000000     0.984380000000     0.310720000000    -0.100259   
N95      N      0.984370000000     0.006920000000     0.179020000000    -0.11305    
N96      N      0.990270000000     0.005880000000     0.113350000000    -0.158269   
O1       O      0.001060000000     0.998470000000     0.994950000000    -0.369067   
O2       O      0.016240000000     0.017870000000     0.068080000000    -0.304441   
O3       O      0.930060000000     0.972010000000     0.006450000000    -0.304702   
O4       O      0.979850000000     0.069070000000     0.974640000000    -0.302329   
O5       O      0.975290000000     0.986060000000     0.065960000000    -0.305042   
O6       O      0.013320000000     0.071500000000     0.014270000000    -0.302864   
O7       O      0.928840000000     0.010710000000     0.971960000000    -0.305901   
O8       O      0.023600000000     0.980400000000     0.923250000000    -0.301273   
O9       O      0.990960000000     0.927280000000     0.019760000000    -0.303873   
O10      O      0.984790000000     0.014800000000     0.922300000000    -0.305557   
O11      O      0.023330000000     0.926610000000     0.979130000000    -0.303825   
O12      O      0.074250000000     0.984090000000     0.978960000000    -0.300851   
O13      O      0.071480000000     0.021630000000     0.014690000000    -0.300746   
O14      O      0.990810000000     0.003310000000     0.493800000000    -0.367194   
O15      O      0.966130000000     0.010270000000     0.421940000000    -0.304328   
O16      O      0.064280000000     0.993680000000     0.472450000000    -0.306259   
O17      O      0.000570000000     0.077240000000     0.509830000000    -0.302965   
O18      O      0.008000000000     0.979510000000     0.423220000000    -0.304033   
O19      O      0.970150000000     0.072460000000     0.467980000000    -0.302306   
O20      O      0.061430000000     0.031340000000     0.507870000000    -0.302387   
O21      O      0.974760000000     0.987110000000     0.566700000000    -0.304237   
O22      O      0.018920000000     0.933070000000     0.483330000000    -0.303089   
O23      O      0.010900000000     0.024360000000     0.564470000000    -0.305762   
O24      O      0.977790000000     0.930810000000     0.515030000000    -0.302727   
O25      O      0.919860000000     0.981730000000     0.515220000000    -0.30393    
O26      O      0.916620000000     0.018720000000     0.479080000000    -0.302015   
O27      O      0.988300000000     0.499510000000     0.992090000000    -0.369895   
O28      O      0.999070000000     0.426510000000     0.972630000000    -0.303946   
O29      O      0.962270000000     0.485000000000     0.063470000000    -0.303718   
O30      O      0.059950000000     0.517520000000     0.010850000000    -0.302868   
O31      O      0.964370000000     0.429260000000     0.011160000000    -0.299783   
O32      O      0.059570000000     0.473700000000     0.982870000000    -0.301016   
O33      O      0.007240000000     0.510860000000     0.065200000000    -0.305138   
O34      O      0.971200000000     0.572460000000     0.976610000000    -0.303833   
O35      O      0.914270000000     0.485690000000     0.002880000000    -0.299087   
O36      O      0.003090000000     0.569920000000     0.017490000000    -0.303928   
O37      O      0.920590000000     0.516080000000     0.961200000000    -0.303977   
O38      O      0.984930000000     0.524180000000     0.919610000000    -0.305486   
O39      O      0.014200000000     0.481410000000     0.922020000000    -0.300231   
O40      O      0.999470000000     0.503340000000     0.492110000000    -0.369585   
O41      O      0.985770000000     0.429840000000     0.507480000000    -0.306417   
O42      O      0.014230000000     0.495200000000     0.418010000000    -0.303507   
O43      O      0.925890000000     0.523460000000     0.486580000000    -0.30405    
O44      O      0.013250000000     0.433280000000     0.463570000000    -0.299946   
O45      O      0.930770000000     0.481480000000     0.516740000000    -0.303393   
O46      O      0.970660000000     0.523010000000     0.423460000000    -0.299516   
O47      O      0.024370000000     0.574360000000     0.504820000000    -0.304741   
O48      O      0.069990000000     0.485540000000     0.468860000000    -0.303523   
O49      O      0.980500000000     0.575970000000     0.477110000000    -0.297422   
O50      O      0.072340000000     0.515470000000     0.511210000000    -0.304185   
O51      O      0.016950000000     0.525110000000     0.563240000000    -0.304071   
O52      O      0.989320000000     0.481170000000     0.564970000000    -0.30247    
O53      O      0.501140000000     0.993120000000     0.004720000000    -0.367453   
O54      O      0.428270000000     0.974980000000     0.991210000000    -0.302981   
O55      O      0.488260000000     0.013410000000     0.077500000000    -0.301102   
O56      O      0.519560000000     0.920860000000     0.023160000000    -0.30754    
O57      O      0.430450000000     0.011950000000     0.027590000000    -0.301037   
O58      O      0.480850000000     0.920520000000     0.988720000000    -0.302653   
O59      O      0.522460000000     0.974440000000     0.075590000000    -0.303298   
O60      O      0.572310000000     0.009520000000     0.981290000000    -0.304004   
O61      O      0.485020000000     0.066140000000     0.023800000000    -0.304134   
O62      O      0.573920000000     0.974460000000     0.019510000000    -0.30003    
O63      O      0.521270000000     0.064850000000     0.986830000000    -0.30245    
O64      O      0.512880000000     0.013360000000     0.932000000000    -0.305299   
O65      O      0.479090000000     0.973930000000     0.933590000000    -0.304487   
O66      O      0.488830000000     0.984190000000     0.504310000000    -0.366549   
O67      O      0.418490000000     0.003980000000     0.527860000000    -0.301817   
O68      O      0.468630000000     0.964310000000     0.432560000000    -0.303042   
O69      O      0.508590000000     0.055830000000     0.483150000000    -0.306868   
O70      O      0.415090000000     0.970310000000     0.488500000000    -0.303082   
O71      O      0.471420000000     0.057960000000     0.519130000000    -0.302009   
O72      O      0.505480000000     0.000880000000     0.432320000000    -0.305136   
O73      O      0.561080000000     0.961050000000     0.518430000000    -0.302598   
O74      O      0.464370000000     0.913320000000     0.488680000000    -0.304978   
O75      O      0.560870000000     0.999300000000     0.483360000000    -0.302745   
O76      O      0.502750000000     0.910460000000     0.523410000000    -0.301912   
O77      O      0.510050000000     0.966260000000     0.575600000000    -0.303342   
O78      O      0.478930000000     0.007930000000     0.575990000000    -0.304622   
O79      O      0.490260000000     0.492760000000     0.985860000000    -0.368847   
O80      O      0.418050000000     0.517380000000     0.974390000000    -0.301158   
O81      O      0.471210000000     0.420810000000     0.001850000000    -0.302351   
O82      O      0.495880000000     0.474830000000     0.911880000000    -0.305881   
O83      O      0.418350000000     0.474620000000     0.003810000000    -0.303108   
O84      O      0.467940000000     0.518300000000     0.916770000000    -0.298595   
O85      O      0.506670000000     0.421050000000     0.964000000000    -0.303186   
O86      O      0.564520000000     0.505680000000     0.998170000000    -0.30439    
O87      O      0.473430000000     0.471990000000     0.058030000000    -0.30412    
O88      O      0.559010000000     0.477250000000     0.955120000000    -0.303044   
O89      O      0.516740000000     0.500660000000     0.057610000000    -0.302443   
O90      O      0.514670000000     0.561300000000     0.009780000000    -0.303148   
O91      O      0.476920000000     0.566980000000     0.974590000000    -0.306101   
O92      O      0.500620000000     0.486350000000     0.487110000000    -0.367448   
O93      O      0.427850000000     0.497360000000     0.466810000000    -0.306874   
O94      O      0.484770000000     0.415080000000     0.510310000000    -0.302507   
O95      O      0.523830000000     0.465170000000     0.416550000000    -0.301222   
O96      O      0.429530000000     0.467860000000     0.509480000000    -0.299995   
O97      O      0.481470000000     0.495150000000     0.413800000000    -0.302274   
O98      O      0.521080000000     0.413550000000     0.473310000000    -0.302934   
O99      O      0.570780000000     0.508810000000     0.506900000000    -0.304359   
O100     O      0.486340000000     0.471320000000     0.560770000000    -0.305607   
O101     O      0.574030000000     0.467490000000     0.475640000000    -0.30411    
O102     O      0.514440000000     0.514830000000     0.557610000000    -0.303604   
O103     O      0.516380000000     0.560490000000     0.496190000000    -0.308113   
O104     O      0.478600000000     0.555790000000     0.460960000000    -0.299735   
O105     O      0.428470000000     0.520670000000     0.849880000000    -0.268969   
O106     O      0.549160000000     0.460470000000     0.115640000000    -0.270314   
O107     O      0.491750000000     0.623190000000     0.421060000000    -0.271355   
O108     O      0.436730000000     0.122230000000     0.495190000000    -0.270408   
O109     O      0.446090000000     0.856390000000     0.012520000000    -0.268116   
O110     O      0.558310000000     0.130880000000     0.007010000000    -0.267589   
O111     O      0.472990000000     0.044740000000     0.868840000000    -0.271861   
O112     O      0.523600000000     0.043130000000     0.143750000000    -0.268821   
O113     O      0.863470000000     0.549780000000     0.531510000000    -0.271818   
O114     O      0.363490000000     0.431600000000     0.508280000000    -0.269951   
O115     O      0.852320000000     0.448300000000     0.987210000000    -0.270097   
O116     O      0.354490000000     0.446800000000     0.968180000000    -0.268743   
O117     O      0.058580000000     0.488570000000     0.858680000000    -0.271001   
O118     O      0.033830000000     0.540400000000     0.352950000000    -0.269532   
O119     O      0.986970000000     0.642100000000     0.439760000000    -0.267644   
O120     O      0.977750000000     0.375860000000     0.429400000000    -0.269883   
O121     O      0.625230000000     0.976360000000     0.444930000000    -0.270943   
O122     O      0.128230000000     0.071210000000     0.485850000000    -0.271826   
O123     O      0.033140000000     0.863470000000     0.052580000000    -0.271815   
O124     O      0.009930000000     0.134890000000     0.943380000000    -0.269918   
O125     O      0.639940000000     0.993690000000     0.050310000000    -0.26674    
O126     O      0.365400000000     0.992900000000     0.065720000000    -0.269379   
O127     O      0.058550000000     0.011720000000     0.862450000000    -0.269168   
O128     O      0.935630000000     0.964660000000     0.359360000000    -0.272164   
Zn1      Zn     0.025010000000     0.026280000000     0.022390000000     0.451665   
Zn2      Zn     0.975030000000     0.971770000000     0.021060000000     0.451993   
Zn3      Zn     0.974220000000     0.022780000000     0.967220000000     0.454985   
Zn4      Zn     0.029360000000     0.972760000000     0.969630000000     0.451645   
Zn5      Zn     0.961900000000     0.025700000000     0.466300000000     0.449717   
Zn6      Zn     0.019820000000     0.978180000000     0.468950000000     0.451304   
Zn7      Zn     0.015220000000     0.033090000000     0.518440000000     0.450818   
Zn8      Zn     0.966340000000     0.976290000000     0.521480000000     0.450594   
Zn9      Zn     0.014420000000     0.470800000000     0.968170000000     0.451158   
Zn10     Zn     0.958190000000     0.476050000000     0.017180000000     0.451545   
Zn11     Zn     0.014130000000     0.523970000000     0.020310000000     0.451157   
Zn12     Zn     0.966780000000     0.527350000000     0.963050000000     0.450701   
Zn13     Zn     0.977540000000     0.474460000000     0.519600000000     0.453377   
Zn14     Zn     0.023630000000     0.479870000000     0.461450000000     0.452041   
Zn15     Zn     0.969590000000     0.530390000000     0.470510000000     0.454365   
Zn16     Zn     0.027450000000     0.528860000000     0.517320000000     0.452013   
Zn17     Zn     0.473400000000     0.966360000000     0.979970000000     0.451724   
Zn18     Zn     0.476730000000     0.020440000000     0.032330000000     0.455591   
Zn19     Zn     0.528560000000     0.966490000000     0.029750000000     0.457376   
Zn20     Zn     0.526210000000     0.019170000000     0.976810000000     0.454037   
Zn21     Zn     0.465040000000     0.012630000000     0.531160000000     0.449977   
Zn22     Zn     0.460060000000     0.959140000000     0.478890000000     0.451003   
Zn23     Zn     0.515280000000     0.009550000000     0.477150000000     0.455251   
Zn24     Zn     0.514960000000     0.956040000000     0.529640000000     0.446637   
Zn25     Zn     0.464090000000     0.523200000000     0.963790000000     0.451954   
Zn26     Zn     0.463940000000     0.466200000000     0.011910000000     0.454385   
Zn27     Zn     0.512540000000     0.467120000000     0.955240000000     0.45146    
Zn28     Zn     0.520490000000     0.514270000000     0.012510000000     0.451561   
Zn29     Zn     0.472860000000     0.508370000000     0.458190000000     0.450454   
Zn30     Zn     0.475950000000     0.461050000000     0.516090000000     0.452436   
Zn31     Zn     0.529140000000     0.459200000000     0.463460000000     0.448957   
Zn32     Zn     0.524510000000     0.516910000000     0.511250000000     0.451643   


