data_structure

_audit_creation_method RASPA-1.0
_audit_creation_date 2023-5-25
_audit_author_name 'Poobodin Mano'

_cell_length_a    42.7662
_cell_length_b    42.6605
_cell_length_c    42.7293
_cell_angle_alpha 90
_cell_angle_beta  90
_cell_angle_gamma 90
_cell_volume      77956.5

_symmetry_cell_setting          triclinic
_symmetry_space_group_name_Hall 'P 1'
_symmetry_space_group_name_H-M  'P 1'
_symmetry_Int_Tables_number     1

_symmetry_equiv_pos_as_xyz 'x,y,z'

loop_
_atom_site_label
_atom_site_type_symbol
_atom_site_fract_x
_atom_site_fract_y
_atom_site_fract_z
_atom_site_charge
C1       C      0.996050000000     0.003120000000     0.077190000000     0.362698   
C2       C      0.080870000000     0.998190000000     0.986110000000     0.361767   
C3       C      0.991770000000     0.912730000000     0.991800000000     0.360709   
C4       C      0.987400000000     0.994540000000     0.904150000000     0.365778   
C5       C      0.997330000000     0.085860000000     0.984910000000     0.362367   
C6       C      0.906550000000     0.003000000000     0.996440000000     0.364417   
C7       C      0.994000000000     0.003470000000     0.405240000000     0.361095   
C8       C      0.077180000000     0.997030000000     0.491630000000     0.364055   
C9       C      0.990230000000     0.083630000000     0.500070000000     0.361051   
C10      C      0.991840000000     0.987370000000     0.577670000000     0.36269    
C11      C      0.984370000000     0.910590000000     0.484370000000     0.360979   
C12      C      0.903220000000     0.003190000000     0.492140000000     0.362508   
C13      C      0.081290000000     0.492550000000     0.004520000000     0.36285    
C14      C      0.999290000000     0.493540000000     0.915470000000     0.362543   
C15      C      0.986260000000     0.411450000000     0.005500000000     0.363026   
C16      C      0.908650000000     0.506790000000     0.997740000000     0.363181   
C17      C      0.001470000000     0.585390000000     0.000050000000     0.366651   
C18      C      0.993920000000     0.501360000000     0.088510000000     0.360961   
C19      C      0.004800000000     0.410430000000     0.498560000000     0.365015   
C20      C      0.910590000000     0.489110000000     0.505350000000     0.362679   
C21      C      0.999070000000     0.495110000000     0.587580000000     0.358921   
C22      C      0.995590000000     0.584690000000     0.507670000000     0.360738   
C23      C      0.987670000000     0.503810000000     0.415720000000     0.363383   
C24      C      0.083080000000     0.498970000000     0.492730000000     0.361736   
C25      C      0.407880000000     0.987110000000     0.990790000000     0.362781   
C26      C      0.495180000000     0.002380000000     0.080010000000     0.36312    
C27      C      0.492090000000     0.905150000000     0.006180000000     0.364272   
C28      C      0.580900000000     0.985790000000     0.990700000000     0.362153   
C29      C      0.495250000000     0.077740000000     0.992030000000     0.362273   
C30      C      0.497200000000     0.986590000000     0.907690000000     0.36293    
C31      C      0.483730000000     0.080550000000     0.490310000000     0.36242    
C32      C      0.403480000000     0.989850000000     0.501140000000     0.362329   
C33      C      0.487380000000     0.992010000000     0.406540000000     0.364785   
C34      C      0.496240000000     0.907980000000     0.485760000000     0.366101   
C35      C      0.492730000000     0.989390000000     0.579640000000     0.360497   
C36      C      0.576130000000     0.000820000000     0.492800000000     0.364326   
C37      C      0.499770000000     0.405900000000     0.984200000000     0.360662   
C38      C      0.409060000000     0.492640000000     0.996290000000     0.363287   
C39      C      0.498290000000     0.479820000000     0.078860000000     0.360234   
C40      C      0.496080000000     0.578440000000     0.004830000000     0.361459   
C41      C      0.489130000000     0.499880000000     0.906880000000     0.360075   
C42      C      0.582320000000     0.497660000000     0.987550000000     0.361883   
C43      C      0.410520000000     0.499360000000     0.486030000000     0.364282   
C44      C      0.494390000000     0.498010000000     0.578300000000     0.360809   
C45      C      0.489870000000     0.408320000000     0.492910000000     0.360012   
C46      C      0.583800000000     0.484540000000     0.493340000000     0.36125    
C47      C      0.504520000000     0.581110000000     0.494300000000     0.363815   
C48      C      0.500230000000     0.498530000000     0.405070000000     0.36225    
C49      C      0.514810000000     0.482780000000     0.662290000000    -0.028494   
C50      C      0.512650000000     0.513790000000     0.824240000000    -0.028873   
C51      C      0.458380000000     0.491040000000     0.858750000000    -0.0112755  
C52      C      0.507860000000     0.524320000000     0.858120000000    -0.00975153 
C53      C      0.488050000000     0.478540000000     0.759400000000    -0.0541679  
C54      C      0.489060000000     0.534890000000     0.726050000000    -0.0528961  
C55      C      0.484570000000     0.507160000000     0.775610000000     0.062065   
C56      C      0.465090000000     0.483080000000     0.824420000000    -0.0282479  
C57      C      0.492090000000     0.506530000000     0.709760000000     0.0631698  
C58      C      0.465210000000     0.509880000000     0.659860000000    -0.0332617  
C59      C      0.490820000000     0.478200000000     0.726750000000    -0.054814   
C60      C      0.470560000000     0.520400000000     0.625900000000     0.0133173  
C61      C      0.522520000000     0.490650000000     0.628160000000    -0.00971255 
C62      C      0.485010000000     0.535180000000     0.758480000000    -0.0520582  
C63      C      0.480110000000     0.553580000000     0.625140000000     0.06005    
C64      C      0.477880000000     0.479990000000     0.323440000000    -0.0278085  
C65      C      0.529240000000     0.474670000000     0.159100000000    -0.0293431  
C66      C      0.468460000000     0.477770000000     0.128310000000    -0.0101885  
C67      C      0.524950000000     0.460230000000     0.126450000000    -0.00950574 
C68      C      0.505470000000     0.456000000000     0.230860000000    -0.0523605  
C69      C      0.503290000000     0.517780000000     0.252450000000    -0.0524916  
C70      C      0.503180000000     0.480580000000     0.209230000000     0.0619333  
C71      C      0.474820000000     0.491250000000     0.160780000000    -0.0287263  
C72      C      0.503510000000     0.493110000000     0.274100000000     0.0633594  
C73      C      0.530310000000     0.501830000000     0.323570000000    -0.0331876  
C74      C      0.506240000000     0.462120000000     0.263010000000    -0.05552    
C75      C      0.525620000000     0.516550000000     0.356190000000     0.0132287  
C76      C      0.470690000000     0.493360000000     0.355780000000    -0.0102228  
C77      C      0.503710000000     0.511710000000     0.220290000000    -0.0543082  
C78      C      0.519020000000     0.550300000000     0.353190000000     0.0599428  
C79      C      0.475710000000     0.824130000000     0.478360000000    -0.0284843  
C80      C      0.532440000000     0.661570000000     0.476190000000    -0.0289913  
C81      C      0.483420000000     0.631490000000     0.512930000000    -0.0095872  
C82      C      0.537480000000     0.628210000000     0.488260000000    -0.00968144 
C83      C      0.508670000000     0.732380000000     0.517520000000    -0.0523075  
C84      C      0.507700000000     0.757260000000     0.457060000000    -0.0516269  
C85      C      0.510010000000     0.712100000000     0.491770000000     0.0632375  
C86      C      0.480530000000     0.664320000000     0.498930000000    -0.0286668  
C87      C      0.507520000000     0.777550000000     0.482830000000     0.0639609  
C88      C      0.528990000000     0.828510000000     0.497550000000    -0.0325251  
C89      C      0.506820000000     0.764760000000     0.513220000000    -0.0551489  
C90      C      0.531850000000     0.862480000000     0.486290000000     0.0125153  
C91      C      0.476190000000     0.857650000000     0.465540000000    -0.0089671  
C92      C      0.508320000000     0.724790000000     0.461360000000    -0.0544026  
C93      C      0.549960000000     0.863740000000     0.457010000000     0.059926   
C94      C      0.496500000000     0.163270000000     0.464670000000    -0.0283346  
C95      C      0.478800000000     0.326210000000     0.465280000000    -0.0288231  
C96      C      0.491080000000     0.359480000000     0.523680000000    -0.0105944  
C97      C      0.469350000000     0.360630000000     0.467970000000    -0.00959198 
C98      C      0.504650000000     0.260220000000     0.492970000000    -0.0546906  
C99      C      0.447390000000     0.229100000000     0.487410000000    -0.0531811  
C100     C      0.476570000000     0.277520000000     0.493870000000     0.0621167  
C101     C      0.498450000000     0.324780000000     0.518340000000    -0.0284541  
C102     C      0.475170000000     0.211720000000     0.487080000000     0.0634474  
C103     C      0.472400000000     0.163110000000     0.515960000000    -0.0330683  
C104     C      0.503910000000     0.227530000000     0.490510000000    -0.0555406  
C105     C      0.461580000000     0.128990000000     0.512640000000     0.0133589  
C106     C      0.487890000000     0.128930000000     0.458860000000    -0.00966426 
C107     C      0.448080000000     0.261600000000     0.490980000000    -0.0524246  
C108     C      0.428050000000     0.127900000000     0.504820000000     0.0593195  
C109     C      0.507690000000     0.826380000000     0.040610000000    -0.0284922  
C110     C      0.500400000000     0.663840000000     0.987840000000    -0.0293972  
C111     C      0.491810000000     0.622740000000     0.041710000000    -0.0102874  
C112     C      0.513180000000     0.630410000000     0.986550000000    -0.00981555 
C113     C      0.523460000000     0.728350000000     0.020780000000    -0.0521448  
C114     C      0.463960000000     0.755190000000     0.023060000000    -0.0524076  
C115     C      0.497120000000     0.708830000000     0.021820000000     0.0623186  
C116     C      0.480940000000     0.656910000000     0.040590000000    -0.0288398  
C117     C      0.490320000000     0.774700000000     0.022430000000     0.0637439  
C118     C      0.484760000000     0.820090000000     0.989120000000    -0.0336308  
C119     C      0.520210000000     0.760940000000     0.020500000000    -0.0553699  
C120     C      0.472110000000     0.853740000000     0.988910000000     0.0133072  
C121     C      0.497020000000     0.860570000000     0.042790000000    -0.00935216 
C122     C      0.467170000000     0.722600000000     0.022200000000    -0.0541412  
C123     C      0.438460000000     0.853830000000     0.996300000000     0.0598465  
C124     C      0.469940000000     0.161350000000     0.994080000000    -0.0302414  
C125     C      0.525760000000     0.324160000000     0.998090000000    -0.0293521  
C126     C      0.477050000000     0.356990000000     0.963350000000    -0.00946168 
C127     C      0.531570000000     0.357710000000     0.986960000000    -0.010953   
C128     C      0.501540000000     0.254810000000     0.955770000000    -0.0524956  
C129     C      0.498800000000     0.229200000000     0.015870000000    -0.0516855  
C130     C      0.501720000000     0.274800000000     0.981790000000     0.0615734  
C131     C      0.473420000000     0.323640000000     0.976110000000    -0.0297071  
C132     C      0.500110000000     0.209180000000     0.989910000000     0.0626395  
C133     C      0.523190000000     0.158830000000     0.974960000000    -0.0324652  
C134     C      0.500160000000     0.222310000000     0.959650000000    -0.0554163  
C135     C      0.527680000000     0.125220000000     0.986850000000     0.0117882  
C136     C      0.471650000000     0.128120000000     0.007570000000    -0.0075081  
C137     C      0.499000000000     0.261720000000     0.011950000000    -0.0542293  
C138     C      0.546710000000     0.125380000000     0.015580000000     0.058577   
C139     C      0.502140000000     0.011080000000     0.824090000000    -0.0290277  
C140     C      0.511590000000     0.960490000000     0.660170000000    -0.0286877  
C141     C      0.475710000000     0.010480000000     0.630440000000    -0.00974885 
C142     C      0.501020000000     0.956400000000     0.626210000000    -0.0104902  
C143     C      0.466870000000     0.980470000000     0.729830000000    -0.0525197  
C144     C      0.526080000000     0.981930000000     0.757380000000    -0.0523102  
C145     C      0.493490000000     0.980740000000     0.710700000000     0.0623017  
C146     C      0.488450000000     0.012120000000     0.663830000000    -0.0290412  
C147     C      0.499480000000     0.980560000000     0.776490000000     0.0633201  
C148     C      0.482700000000     0.957830000000     0.826400000000    -0.0325635  
C149     C      0.469700000000     0.980960000000     0.762400000000    -0.055455   
C150     C      0.493290000000     0.953620000000     0.860440000000     0.0122954  
C151     C      0.514430000000     0.009640000000     0.857700000000    -0.00874126 
C152     C      0.523220000000     0.982610000000     0.724800000000    -0.0547966  
C153     C      0.521830000000     0.934320000000     0.861560000000     0.0582284  
C154     C      0.513120000000     0.008420000000     0.325300000000    -0.0280896  
C155     C      0.465480000000     0.009470000000     0.160540000000    -0.0292848  
C156     C      0.525730000000     0.003620000000     0.129070000000    -0.0107945  
C157     C      0.469760000000     0.023090000000     0.127640000000    -0.00931078 
C158     C      0.489270000000     0.029770000000     0.231040000000    -0.0518135  
C159     C      0.489910000000     0.968750000000     0.254800000000    -0.0523081  
C160     C      0.491780000000     0.004390000000     0.210390000000     0.0624083  
C161     C      0.519360000000     0.991300000000     0.162010000000    -0.0280525  
C162     C      0.489240000000     0.994190000000     0.275520000000     0.0645409  
C163     C      0.460110000000     0.988180000000     0.323930000000    -0.0328216  
C164     C      0.487410000000     0.024810000000     0.263310000000    -0.0557567  
C165     C      0.462920000000     0.974430000000     0.357130000000     0.0134202  
C166     C      0.518580000000     0.996020000000     0.358310000000    -0.00964062 
C167     C      0.490580000000     0.973670000000     0.222480000000    -0.0535343  
C168     C      0.468360000000     0.940370000000     0.355500000000     0.0618855  
C169     C      0.831610000000     0.456350000000     0.489160000000    -0.0285341  
C170     C      0.668130000000     0.504410000000     0.488410000000    -0.0289151  
C171     C      0.629270000000     0.450300000000     0.503570000000    -0.0104303  
C172     C      0.635310000000     0.502080000000     0.474490000000    -0.00959528 
C173     C      0.734430000000     0.473920000000     0.471460000000    -0.0522787  
C174     C      0.760130000000     0.475790000000     0.531500000000    -0.0527861  
C175     C      0.714480000000     0.473440000000     0.497500000000     0.0618972  
C176     C      0.662910000000     0.454630000000     0.515110000000    -0.0288346  
C177     C      0.780080000000     0.475470000000     0.505460000000     0.0633249  
C178     C      0.825930000000     0.508340000000     0.511350000000    -0.0333985  
C179     C      0.766840000000     0.475580000000     0.475260000000    -0.0554993  
C180     C      0.859440000000     0.508080000000     0.524450000000     0.013594   
C181     C      0.865360000000     0.453560000000     0.500560000000    -0.00937894 
C182     C      0.727660000000     0.475390000000     0.527680000000    -0.0541819  
C183     C      0.858940000000     0.501210000000     0.558230000000     0.0592664  
C184     C      0.328340000000     0.525340000000     0.500680000000    -0.0285103  
C185     C      0.164210000000     0.525580000000     0.475940000000    -0.029071   
C186     C      0.132230000000     0.469330000000     0.497850000000    -0.0110953  
C187     C      0.129980000000     0.520310000000     0.466860000000    -0.00938973 
C188     C      0.230690000000     0.501360000000     0.507800000000    -0.0541952  
C189     C      0.262310000000     0.502310000000     0.450590000000    -0.0528523  
C190     C      0.213650000000     0.498250000000     0.479710000000     0.0623407  
C191     C      0.166490000000     0.476760000000     0.504780000000    -0.0280848  
C192     C      0.279460000000     0.504510000000     0.478450000000     0.0634421  
C193     C      0.327640000000     0.474990000000     0.474570000000    -0.0333627  
C194     C      0.263320000000     0.503470000000     0.507210000000    -0.0549155  
C195     C      0.361710000000     0.478230000000     0.463710000000     0.0135771  
C196     C      0.362640000000     0.530970000000     0.492200000000    -0.00945426 
C197     C      0.229850000000     0.498900000000     0.451210000000    -0.0520873  
C198     C      0.362760000000     0.487320000000     0.430460000000     0.0598978  
C199     C      0.826650000000     0.534370000000     0.012540000000    -0.0283907  
C200     C      0.661710000000     0.532460000000     0.980180000000    -0.0296876  
C201     C      0.633380000000     0.471500000000     0.992680000000    -0.0116849  
C202     C      0.628690000000     0.525820000000     0.968120000000    -0.00920177 
C203     C      0.728270000000     0.509220000000     0.012590000000    -0.0539015  
C204     C      0.762630000000     0.517770000000     0.957630000000    -0.0531455  
C205     C      0.712890000000     0.508470000000     0.983400000000     0.0614434  
C206     C      0.666420000000     0.480610000000     0.002780000000    -0.0274306  
C207     C      0.778280000000     0.517020000000     0.986420000000     0.0629374  
C208     C      0.825430000000     0.486340000000     0.982520000000    -0.0339297  
C209     C      0.760790000000     0.512500000000     0.014020000000    -0.054821   
C210     C      0.859800000000     0.489200000000     0.973010000000     0.0137193  
C211     C      0.861600000000     0.539260000000     0.006140000000    -0.0083642  
C212     C      0.730370000000     0.513250000000     0.956110000000    -0.0522762  
C213     C      0.862230000000     0.500810000000     0.940620000000     0.0602413  
C214     C      0.326830000000     0.514040000000     0.018210000000    -0.0283417  
C215     C      0.164840000000     0.516750000000     0.996640000000    -0.0291598  
C216     C      0.128800000000     0.461960000000     0.015900000000    -0.00963072 
C217     C      0.130970000000     0.514140000000     0.985950000000    -0.0096648  
C218     C      0.229650000000     0.487930000000     0.026470000000    -0.0537554  
C219     C      0.260160000000     0.491550000000     0.968730000000    -0.052998   
C220     C      0.212120000000     0.486200000000     0.998570000000     0.0618245  
C221     C      0.163580000000     0.466880000000     0.023210000000    -0.0282938  
C222     C      0.277770000000     0.492980000000     0.996320000000     0.0631056  
C223     C      0.326620000000     0.465200000000     0.989480000000    -0.0339207  
C224     C      0.262280000000     0.490350000000     0.025340000000    -0.0544751  
C225     C      0.359700000000     0.470370000000     0.976770000000     0.0137851  
C226     C      0.360550000000     0.521400000000     0.008560000000    -0.00838425 
C227     C      0.227800000000     0.487850000000     0.969840000000    -0.052057   
C228     C      0.358310000000     0.481010000000     0.943990000000     0.0598248  
C229     C      0.025440000000     0.508100000000     0.833220000000    -0.0284086  
C230     C      0.027660000000     0.486670000000     0.669830000000    -0.0284343  
C231     C      0.969490000000     0.500050000000     0.636690000000    -0.0112981  
C232     C      0.024540000000     0.476470000000     0.635680000000    -0.00925402 
C233     C      0.999740000000     0.514430000000     0.735610000000    -0.0547939  
C234     C      0.005180000000     0.457410000000     0.767380000000    -0.0528839  
C235     C      0.999160000000     0.486090000000     0.718630000000     0.0620823  
C236     C      0.975350000000     0.508050000000     0.671090000000    -0.0280042  
C237     C      0.005030000000     0.485430000000     0.784460000000     0.0637673  
C238     C      0.975360000000     0.481670000000     0.832480000000    -0.0333564  
C239     C      0.001710000000     0.514050000000     0.768290000000    -0.0542678  
C240     C      0.978510000000     0.470960000000     0.866610000000     0.0129285  
C241     C      0.030990000000     0.499830000000     0.867630000000    -0.00938509 
C242     C      0.002040000000     0.457720000000     0.734880000000    -0.0513495  
C243     C      0.987670000000     0.437690000000     0.867830000000     0.0606005  
C244     C      0.979040000000     0.480090000000     0.333120000000    -0.0295827  
C245     C      0.974070000000     0.528700000000     0.168930000000    -0.0284321  
C246     C      0.011700000000     0.480100000000     0.139070000000    -0.00842946 
C247     C      0.985390000000     0.533640000000     0.135420000000    -0.0110752  
C248     C      0.017640000000     0.508810000000     0.239250000000    -0.0518867  
C249     C      0.957790000000     0.507600000000     0.265380000000    -0.0522659  
C250     C      0.991500000000     0.508210000000     0.219500000000     0.0619285  
C251     C      0.998480000000     0.477570000000     0.172270000000    -0.0300901  
C252     C      0.983900000000     0.509530000000     0.285090000000     0.0628381  
C253     C      0.999950000000     0.532970000000     0.334960000000    -0.0339401  
C254     C      0.014030000000     0.508840000000     0.271740000000    -0.054763   
C255     C      0.988990000000     0.537750000000     0.368820000000     0.0123657  
C256     C      0.966240000000     0.482590000000     0.366460000000    -0.0082322  
C257     C      0.961440000000     0.506310000000     0.232910000000    -0.0547334  
C258     C      0.960450000000     0.557030000000     0.369380000000     0.0565467  
C259     C      0.963920000000     0.829830000000     0.507920000000    -0.028503   
C260     C      0.012360000000     0.666770000000     0.485620000000    -0.0279365  
C261     C      0.976850000000     0.633290000000     0.533360000000    -0.0100679  
C262     C      0.023060000000     0.634300000000     0.496200000000    -0.00978135 
C263     C      0.971180000000     0.725030000000     0.480120000000    -0.0548165  
C264     C      0.003300000000     0.770310000000     0.514920000000    -0.0552142  
C265     C      0.991130000000     0.715600000000     0.504600000000     0.0617145  
C266     C      0.968320000000     0.666150000000     0.521450000000    -0.0291012  
C267     C      0.983520000000     0.779740000000     0.490300000000     0.0625216  
C268     C      0.008050000000     0.827810000000     0.472220000000    -0.0326754  
C269     C      0.967460000000     0.756850000000     0.473120000000    -0.0521121  
C270     C      0.001010000000     0.860800000000     0.459400000000     0.0133197  
C271     C      0.954500000000     0.862440000000     0.496470000000    -0.00950263 
C272     C      0.007030000000     0.738500000000     0.521900000000    -0.0521885  
C273     C      0.985240000000     0.858510000000     0.428860000000     0.057388   
C274     C      0.985180000000     0.327700000000     0.480570000000    -0.0287521  
C275     C      0.015550000000     0.163700000000     0.523100000000    -0.0288949  
C276     C      0.966420000000     0.134400000000     0.485890000000    -0.00985776 
C277     C      0.005000000000     0.130320000000     0.530940000000    -0.00881731 
C278     C      0.977880000000     0.235990000000     0.523330000000    -0.0521656  
C279     C      0.025330000000     0.257750000000     0.483890000000    -0.0526365  
C280     C      0.996160000000     0.214440000000     0.506700000000     0.0615383  
C281     C      0.978760000000     0.167520000000     0.480070000000    -0.0289368  
C282     C      0.006840000000     0.279320000000     0.500270000000     0.0641189  
C283     C      0.021350000000     0.328780000000     0.524290000000    -0.03294    
C284     C      0.983090000000     0.268180000000     0.520220000000    -0.056678   
C285     C      0.031790000000     0.362430000000     0.516710000000     0.0129891  
C286     C      0.993980000000     0.360950000000     0.470620000000    -0.00994761 
C287     C      0.020130000000     0.225560000000     0.487010000000    -0.0539706  
C288     C      0.062380000000     0.362060000000     0.500900000000     0.0578173  
C289     C      0.660050000000     0.989380000000     0.515650000000    -0.0278068  
C290     C      0.821760000000     0.024420000000     0.469260000000    -0.0289789  
C291     C      0.853910000000     0.990640000000     0.519140000000    -0.00936994 
C292     C      0.855920000000     0.032260000000     0.476420000000    -0.0097589  
C293     C      0.759170000000     0.990020000000     0.472690000000    -0.0544802  
C294     C      0.720510000000     0.027320000000     0.510180000000    -0.0560854  
C295     C      0.772570000000     0.011300000000     0.494010000000     0.0620182  
C296     C      0.819930000000     0.984770000000     0.509800000000    -0.0288299  
C297     C      0.707150000000     0.005810000000     0.489080000000     0.0635814  
C298     C      0.657360000000     0.029970000000     0.476330000000    -0.0327479  
C299     C      0.726710000000     0.987380000000     0.470330000000    -0.0521461  
C300     C      0.623550000000     0.021710000000     0.467490000000     0.0129728  
C301     C      0.626500000000     0.978740000000     0.509490000000    -0.00923528 
C302     C      0.752990000000     0.029960000000     0.512550000000    -0.0526033  
C303     C      0.623080000000     0.004860000000     0.437390000000     0.0611753  
C304     C      0.159800000000     0.972580000000     0.478160000000    -0.0283953  
C305     C      0.322070000000     0.013230000000     0.520020000000    -0.0291128  
C306     C      0.354520000000     0.961580000000     0.489350000000    -0.0100597  
C307     C      0.355590000000     0.005170000000     0.529770000000    -0.0102858  
C308     C      0.261640000000     0.010990000000     0.481600000000    -0.0550283  
C309     C      0.219420000000     0.976050000000     0.517460000000    -0.0558355  
C310     C      0.272930000000     0.989830000000     0.504240000000     0.0628023  
C311     C      0.321240000000     0.971670000000     0.481220000000    -0.0286291  
C312     C      0.208140000000     0.997040000000     0.494670000000     0.0638311  
C313     C      0.158890000000     0.014420000000     0.516480000000    -0.0330092  
C314     C      0.229490000000     0.014480000000     0.476940000000    -0.0524137  
C315     C      0.125620000000     0.024280000000     0.507340000000     0.0127519  
C316     C      0.126590000000     0.980020000000     0.467060000000    -0.00916239 
C317     C      0.251570000000     0.972520000000     0.522100000000    -0.0526939  
C318     C      0.126610000000     0.052620000000     0.487680000000     0.0587694  
C319     C      0.980760000000     0.668330000000     0.016290000000    -0.0280346  
C320     C      0.015610000000     0.830640000000     0.974500000000    -0.0284005  
C321     C      0.967190000000     0.863540000000     0.009680000000    -0.00911529 
C322     C      0.006640000000     0.863910000000     0.964970000000    -0.00925512 
C323     C      0.975830000000     0.760390000000     0.974220000000    -0.0521533  
C324     C      0.021460000000     0.737680000000     0.015250000000    -0.052307   
C325     C      0.993690000000     0.781530000000     0.991800000000     0.0610581  
C326     C      0.977920000000     0.830060000000     0.016820000000    -0.0286158  
C327     C      0.003510000000     0.716540000000     0.997760000000     0.0633052  
C328     C      0.018150000000     0.667090000000     0.973670000000    -0.0327347  
C329     C      0.980600000000     0.728130000000     0.977120000000    -0.056527   
C330     C      0.028170000000     0.633330000000     0.981400000000     0.0128017  
C331     C      0.989060000000     0.635110000000     0.026530000000    -0.0098823  
C332     C      0.016690000000     0.769940000000     0.012340000000    -0.0536603  
C333     C      0.058520000000     0.633480000000     0.997690000000     0.0578406  
C334     C      0.013210000000     0.167720000000     0.008610000000    -0.0269995  
C335     C      0.967500000000     0.331070000000     0.979260000000    -0.0291955  
C336     C      0.998480000000     0.361380000000     0.031970000000    -0.011006   
C337     C      0.957320000000     0.363920000000     0.989360000000    -0.0109285  
C338     C      0.967280000000     0.258220000000     0.015670000000    -0.0513651  
C339     C      0.011460000000     0.239370000000     0.971240000000    -0.0515384  
C340     C      0.984520000000     0.280910000000     0.999450000000     0.0610773  
C341     C      0.007000000000     0.328670000000     0.020070000000    -0.0278585  
C342     C      0.994280000000     0.216690000000     0.987530000000     0.0621792  
C343     C      0.972620000000     0.167610000000     0.968880000000    -0.0333592  
C344     C      0.972050000000     0.226350000000     0.009860000000    -0.0548798  
C345     C      0.981640000000     0.134610000000     0.957690000000     0.0125827  
C346     C      0.024380000000     0.135020000000     0.999200000000    -0.0099344  
C347     C      0.006720000000     0.271250000000     0.977080000000    -0.0541481  
C348     C      0.000170000000     0.136580000000     0.928720000000     0.058954   
C349     C      0.825730000000     0.977560000000     0.014900000000    -0.0276967  
C350     C      0.662330000000     0.007580000000     0.971560000000    -0.0293203  
C351     C      0.629630000000     0.958340000000     0.005740000000    -0.00893462 
C352     C      0.629340000000     0.998030000000     0.961590000000    -0.0094325  
C353     C      0.733520000000     0.969910000000     0.972900000000    -0.0521702  
C354     C      0.753760000000     0.015320000000     0.015530000000    -0.0515852  
C355     C      0.711420000000     0.986790000000     0.990280000000     0.0622423  
C356     C      0.662740000000     0.969430000000     0.013750000000    -0.0287303  
C357     C      0.775850000000     0.998410000000     0.998200000000     0.0630488  
C358     C      0.823730000000     0.017690000000     0.974700000000    -0.0336306  
C359     C      0.765480000000     0.975620000000     0.976720000000    -0.0554267  
C360     C      0.856860000000     0.029280000000     0.982500000000     0.0125485  
C361     C      0.858700000000     0.987240000000     0.024810000000    -0.00859952 
C362     C      0.721790000000     0.009680000000     0.011640000000    -0.0543946  
C363     C      0.855230000000     0.058170000000     0.001290000000     0.0608515  
C364     C      0.326500000000     0.969090000000     0.964160000000    -0.0280525  
C365     C      0.164700000000     0.011530000000     0.006480000000    -0.0280018  
C366     C      0.128010000000     0.979900000000     0.958390000000    -0.0102711  
C367     C      0.131300000000     0.022620000000     0.999950000000    -0.0115803  
C368     C      0.223700000000     0.971240000000     0.002610000000    -0.0541809  
C369     C      0.264820000000     0.005810000000     0.965150000000    -0.0560657  
C370     C      0.211740000000     0.993070000000     0.980980000000     0.0617963  
C371     C      0.161500000000     0.970850000000     0.967100000000    -0.0285882  
C372     C      0.276790000000     0.984250000000     0.987040000000     0.0632064  
C373     C      0.324540000000     0.009140000000     0.004250000000    -0.0315904  
C374     C      0.255970000000     0.966970000000     0.005560000000    -0.0518014  
C375     C      0.357890000000     0.002070000000     0.015320000000     0.0123717  
C376     C      0.360110000000     0.960010000000     0.972740000000    -0.00999059 
C377     C      0.232550000000     0.010100000000     0.962210000000    -0.0527071  
C378     C      0.357020000000     0.983650000000     0.044470000000     0.0606754  
C379     C      0.010580000000     0.980270000000     0.821520000000    -0.0286658  
C380     C      0.014240000000     0.999790000000     0.660650000000    -0.0280472  
C381     C      0.968880000000     0.963440000000     0.624840000000    -0.00932486 
C382     C      0.021850000000     0.990510000000     0.626940000000    -0.00976986 
C383     C      0.986870000000     0.951610000000     0.725890000000    -0.0529719  
C384     C      0.983740000000     0.009670000000     0.756050000000    -0.0552289  
C385     C      0.989460000000     0.979130000000     0.708230000000     0.0625624  
C386     C      0.963330000000     0.974780000000     0.658290000000    -0.0290871  
C387     C      0.981010000000     0.981870000000     0.773680000000     0.0639411  
C388     C      0.960830000000     0.007190000000     0.821450000000    -0.0330767  
C389     C      0.982380000000     0.952960000000     0.758180000000    -0.0528788  
C390     C      0.955350000000     0.000600000000     0.856420000000     0.0124396  
C391     C      0.007440000000     0.970910000000     0.855790000000    -0.00689436 
C392     C      0.986950000000     0.008320000000     0.723520000000    -0.0546168  
C393     C      0.931560000000     0.975910000000     0.860100000000     0.0583605  
C394     C      0.023370000000     0.015260000000     0.159280000000    -0.0290179  
C395     C      0.019920000000     0.988320000000     0.323160000000    -0.0287761  
C396     C      0.974770000000     0.027330000000     0.356430000000    -0.0089549  
C397     C      0.025620000000     0.996100000000     0.357620000000    -0.00941069 
C398     C      0.000270000000     0.040340000000     0.257440000000    -0.0518867  
C399     C      0.996860000000     0.983450000000     0.225190000000    -0.0540919  
C400     C      0.000850000000     0.012190000000     0.274340000000     0.0627735  
C401     C      0.971200000000     0.017170000000     0.322300000000    -0.029818   
C402     C      0.995410000000     0.011880000000     0.208400000000     0.0632147  
C403     C      0.973780000000     0.988070000000     0.160570000000    -0.0325242  
C404     C      0.997250000000     0.040190000000     0.224910000000    -0.0528247  
C405     C      0.966660000000     0.995860000000     0.126250000000     0.0126404  
C406     C      0.018820000000     0.025370000000     0.125220000000    -0.00797502 
C407     C      0.998560000000     0.983630000000     0.257870000000    -0.0544407  
C408     C      0.942910000000     0.020800000000     0.124540000000     0.0589865  
H1       H      0.482680000000     0.557420000000     0.770470000000     0.0474359  
H2       H      0.537120000000     0.480440000000     0.675490000000     0.0368652  
H3       H      0.449490000000     0.526990000000     0.671750000000     0.0405793  
H4       H      0.439880000000     0.509340000000     0.859530000000     0.0459028  
H5       H      0.540100000000     0.509850000000     0.627870000000     0.0454059  
H6       H      0.526100000000     0.532410000000     0.811900000000     0.0366104  
H7       H      0.442460000000     0.478930000000     0.812250000000     0.0379265  
H8       H      0.531120000000     0.525570000000     0.869710000000     0.0452975  
H9       H      0.447830000000     0.518540000000     0.613360000000     0.0425136  
H10      H      0.489650000000     0.556900000000     0.713440000000     0.0508025  
H11      H      0.533700000000     0.469800000000     0.617260000000     0.045921   
H12      H      0.488390000000     0.456400000000     0.771680000000     0.0420228  
H13      H      0.502450000000     0.459820000000     0.662880000000     0.037844   
H14      H      0.448810000000     0.469820000000     0.870440000000     0.049255   
H15      H      0.526760000000     0.491840000000     0.823600000000     0.040743   
H16      H      0.479010000000     0.461040000000     0.823680000000     0.0387707  
H17      H      0.492460000000     0.455770000000     0.715090000000     0.0419661  
H18      H      0.453040000000     0.486780000000     0.660110000000     0.0410612  
H19      H      0.497750000000     0.548340000000     0.858110000000     0.0439561  
H20      H      0.503320000000     0.531320000000     0.204260000000     0.0435134  
H21      H      0.455620000000     0.478390000000     0.310020000000     0.0392102  
H22      H      0.547500000000     0.516050000000     0.310050000000     0.0408112  
H23      H      0.457620000000     0.454240000000     0.131160000000     0.0405323  
H24      H      0.456750000000     0.515160000000     0.352790000000     0.0485648  
H25      H      0.547700000000     0.461200000000     0.171620000000     0.0362381  
H26      H      0.452810000000     0.490200000000     0.174660000000     0.037483   
H27      H      0.546900000000     0.463560000000     0.112880000000     0.0445343  
H28      H      0.547930000000     0.514080000000     0.369350000000     0.0423871  
H29      H      0.502150000000     0.541800000000     0.260580000000     0.0506705  
H30      H      0.455740000000     0.476340000000     0.368580000000     0.0505112  
H31      H      0.506020000000     0.431950000000     0.222740000000     0.0460962  
H32      H      0.487440000000     0.455910000000     0.326420000000     0.0395124  
H33      H      0.451120000000     0.492930000000     0.116210000000     0.0465042  
H34      H      0.537260000000     0.499410000000     0.156860000000     0.040814   
H35      H      0.481690000000     0.516260000000     0.158080000000     0.0405917  
H36      H      0.507820000000     0.442560000000     0.279030000000     0.0428102  
H37      H      0.540350000000     0.477870000000     0.326200000000     0.0407462  
H38      H      0.520940000000     0.434610000000     0.129080000000     0.0420196  
H39      H      0.507920000000     0.709870000000     0.440920000000     0.0451468  
H40      H      0.459510000000     0.809990000000     0.463630000000     0.0380344  
H41      H      0.552500000000     0.817220000000     0.497700000000     0.0423452  
H42      H      0.490040000000     0.633620000000     0.538010000000     0.047098   
H43      H      0.481100000000     0.856790000000     0.440000000000     0.0513198  
H44      H      0.555540000000     0.673490000000     0.474650000000     0.0387221  
H45      H      0.464650000000     0.678290000000     0.514160000000     0.0372804  
H46      H      0.550630000000     0.614750000000     0.470280000000     0.0484646  
H47      H      0.545360000000     0.875610000000     0.504240000000     0.0453495  
H48      H      0.507310000000     0.766700000000     0.433530000000     0.0507744  
H49      H      0.452580000000     0.868110000000     0.468740000000     0.0463755  
H50      H      0.508890000000     0.722950000000     0.541060000000     0.0475199  
H51      H      0.466570000000     0.824140000000     0.502780000000     0.0401488  
H52      H      0.460090000000     0.620000000000     0.511820000000     0.0475459  
H53      H      0.522270000000     0.660140000000     0.452260000000     0.0421165  
H54      H      0.469900000000     0.662980000000     0.475160000000     0.0423249  
H55      H      0.505330000000     0.779630000000     0.533650000000     0.0431292  
H56      H      0.520340000000     0.828990000000     0.522110000000     0.0400729  
H57      H      0.552360000000     0.629310000000     0.509570000000     0.0430468  
H58      H      0.426300000000     0.274560000000     0.491230000000     0.0475528  
H59      H      0.497540000000     0.175610000000     0.441740000000     0.0370447  
H60      H      0.456200000000     0.175790000000     0.532030000000     0.0406067  
H61      H      0.469570000000     0.361230000000     0.538200000000     0.0420089  
H62      H      0.467400000000     0.128140000000     0.442870000000     0.0454424  
H63      H      0.462930000000     0.314770000000     0.448060000000     0.0367319  
H64      H      0.497040000000     0.312320000000     0.541190000000     0.0362263  
H65      H      0.474190000000     0.372300000000     0.445190000000     0.0454247  
H66      H      0.464570000000     0.117500000000     0.535820000000     0.0428299  
H67      H      0.425080000000     0.217280000000     0.485230000000     0.051017   
H68      H      0.507690000000     0.117410000000     0.446530000000     0.0464337  
H69      H      0.527110000000     0.271750000000     0.494450000000     0.0417421  
H70      H      0.520140000000     0.164110000000     0.475540000000     0.0380483  
H71      H      0.510490000000     0.370060000000     0.537400000000     0.0457482  
H72      H      0.503170000000     0.324320000000     0.456250000000     0.0399856  
H73      H      0.522830000000     0.322800000000     0.509420000000     0.037919   
H74      H      0.525780000000     0.214840000000     0.491070000000     0.0420167  
H75      H      0.496060000000     0.163740000000     0.526860000000     0.0405878  
H76      H      0.443720000000     0.361990000000     0.472180000000     0.0439394  
H77      H      0.446240000000     0.708400000000     0.021730000000     0.0436922  
H78      H      0.508850000000     0.816460000000     0.064670000000     0.0381509  
H79      H      0.469550000000     0.805040000000     0.974170000000     0.0413009  
H80      H      0.513740000000     0.621500000000     0.055640000000     0.0417675  
H81      H      0.475930000000     0.861680000000     0.057970000000     0.0467218  
H82      H      0.515070000000     0.678740000000     0.972260000000     0.0365319  
H83      H      0.481280000000     0.666580000000     0.064780000000     0.0374259  
H84      H      0.509750000000     0.621230000000     0.962430000000     0.0456153  
H85      H      0.474820000000     0.862970000000     0.964710000000     0.0448161  
H86      H      0.440760000000     0.765390000000     0.023560000000     0.0510517  
H87      H      0.515690000000     0.874360000000     0.054540000000     0.0469205  
H88      H      0.546630000000     0.718170000000     0.019530000000     0.0464879  
H89      H      0.531610000000     0.825950000000     0.030370000000     0.0391694  
H90      H      0.473880000000     0.608710000000     0.054310000000     0.0463789  
H91      H      0.475960000000     0.664370000000     0.978800000000     0.0409573  
H92      H      0.456420000000     0.657380000000     0.031900000000     0.0394536  
H93      H      0.541050000000     0.775160000000     0.018670000000     0.0432099  
H94      H      0.508620000000     0.819710000000     0.978640000000     0.0421316  
H95      H      0.538760000000     0.631040000000     0.991190000000     0.0428011  
H96      H      0.497680000000     0.276430000000     0.032510000000     0.0429657  
H97      H      0.453060000000     0.175100000000     0.008400000000     0.0370972  
H98      H      0.546170000000     0.171160000000     0.974320000000     0.04144    
H99      H      0.483300000000     0.355660000000     0.938120000000     0.0427246  
H100     H      0.475670000000     0.129710000000     0.033230000000     0.0467488  
H101     H      0.548540000000     0.311570000000     0.998830000000     0.0373313  
H102     H      0.457020000000     0.310680000000     0.960550000000     0.0361672  
H103     H      0.545730000000     0.370100000000     0.004930000000     0.0468494  
H104     H      0.541140000000     0.112210000000     0.968760000000     0.0445519  
H105     H      0.497810000000     0.219490000000     0.039270000000     0.0484775  
H106     H      0.448650000000     0.116480000000     0.003930000000     0.0442732  
H107     H      0.502630000000     0.264520000000     0.932370000000     0.0459827  
H108     H      0.461000000000     0.160550000000     0.969600000000     0.0395947  
H109     H      0.454110000000     0.369130000000     0.965230000000     0.0452197  
H110     H      0.516090000000     0.325150000000     0.022250000000     0.0400413  
H111     H      0.463070000000     0.324370000000     0.000030000000     0.0409398  
H112     H      0.499870000000     0.207630000000     0.939030000000     0.0423791  
H113     H      0.514290000000     0.157590000000     0.950500000000     0.0391325  
H114     H      0.545730000000     0.356810000000     0.965160000000     0.0411516  
H115     H      0.544250000000     0.984190000000     0.710850000000     0.0428212  
H116     H      0.516990000000     0.027830000000     0.810720000000     0.0362515  
H117     H      0.482400000000     0.934680000000     0.814300000000     0.0417853  
H118     H      0.450420000000     0.004490000000     0.631400000000     0.0435561  
H119     H      0.540090000000     0.005470000000     0.857060000000     0.0465787  
H120     H      0.512970000000     0.936950000000     0.671320000000     0.0373413  
H121     H      0.472740000000     0.027540000000     0.677770000000     0.0359142  
H122     H      0.520050000000     0.944560000000     0.612980000000     0.0462145  
H123     H      0.474650000000     0.940430000000     0.872920000000     0.044885   
H124     H      0.549130000000     0.982580000000     0.767850000000     0.0484882  
H125     H      0.510510000000     0.032840000000     0.868930000000     0.0442852  
H126     H      0.443810000000     0.980030000000     0.719370000000     0.0462422  
H127     H      0.477700000000     0.020140000000     0.823940000000     0.039338   
H128     H      0.477800000000     0.034130000000     0.619660000000     0.0448773  
H129     H      0.535410000000     0.971010000000     0.660140000000     0.0386374  
H130     H      0.512230000000     0.022800000000     0.663800000000     0.0397753  
H131     H      0.448630000000     0.981210000000     0.776370000000     0.0425719  
H132     H      0.458270000000     0.966870000000     0.826640000000     0.0393122  
H133     H      0.480400000000     0.940530000000     0.625810000000     0.042018   
H134     H      0.491050000000     0.953500000000     0.207180000000     0.0444652  
H135     H      0.535950000000     0.008930000000     0.312790000000     0.0397696  
H136     H      0.443020000000     0.974090000000     0.310130000000     0.0414931  
H137     H      0.537640000000     0.026700000000     0.131050000000     0.043255   
H138     H      0.532190000000     0.973870000000     0.356700000000     0.0505641  
H139     H      0.447510000000     0.023690000000     0.172950000000     0.037921   
H140     H      0.541560000000     0.992040000000     0.175600000000     0.0382588  
H141     H      0.447490000000     0.020150000000     0.114510000000     0.0483577  
H142     H      0.440220000000     0.978160000000     0.369290000000     0.0429374  
H143     H      0.490380000000     0.945030000000     0.263810000000     0.0518154  
H144     H      0.533280000000     0.013220000000     0.371180000000     0.0506728  
H145     H      0.489140000000     0.053510000000     0.222050000000     0.0469424  
H146     H      0.504140000000     0.032850000000     0.327040000000     0.0396056  
H147     H      0.542120000000     0.987340000000     0.117090000000     0.0479121  
H148     H      0.456810000000     0.984890000000     0.158930000000     0.043535   
H149     H      0.511660000000     0.966450000000     0.160110000000     0.0409883  
H150     H      0.485530000000     0.044930000000     0.278580000000     0.0433899  
H151     H      0.450780000000     0.012530000000     0.325350000000     0.0410564  
H152     H      0.474550000000     0.048630000000     0.129680000000     0.0439567  
H153     H      0.713130000000     0.476340000000     0.548350000000     0.0431547  
H154     H      0.821240000000     0.432440000000     0.488040000000     0.037182   
H155     H      0.811000000000     0.523740000000     0.526220000000     0.0410306  
H156     H      0.629420000000     0.433330000000     0.483820000000     0.0412295  
H157     H      0.865640000000     0.438830000000     0.522030000000     0.0448601  
H158     H      0.682780000000     0.518540000000     0.472120000000     0.0365307  
H159     H      0.673620000000     0.431100000000     0.518530000000     0.0366242  
H160     H      0.625010000000     0.526020000000     0.473840000000     0.0461768  
H161     H      0.869300000000     0.532020000000     0.521450000000     0.0433355  
H162     H      0.769880000000     0.476620000000     0.554880000000     0.0502155  
H163     H      0.879140000000     0.440970000000     0.482440000000     0.0465424  
H164     H      0.724710000000     0.473410000000     0.448060000000     0.046053   
H165     H      0.831930000000     0.466370000000     0.465110000000     0.0393664  
H166     H      0.615200000000     0.439710000000     0.522730000000     0.0458358  
H167     H      0.667280000000     0.516870000000     0.511320000000     0.041235   
H168     H      0.662140000000     0.466800000000     0.538150000000     0.0390492  
H169     H      0.781310000000     0.476620000000     0.454550000000     0.0430782  
H170     H      0.826040000000     0.518580000000     0.487360000000     0.0421692  
H171     H      0.637160000000     0.493580000000     0.449960000000     0.043206   
H172     H      0.217170000000     0.496870000000     0.429370000000     0.0475757  
H173     H      0.316410000000     0.548430000000     0.502730000000     0.0372179  
H174     H      0.314740000000     0.459670000000     0.457830000000     0.0409321  
H175     H      0.131280000000     0.451720000000     0.478680000000     0.046068   
H176     H      0.363610000000     0.547860000000     0.472390000000     0.0458246  
H177     H      0.175390000000     0.539930000000     0.457280000000     0.0365724  
H178     H      0.179430000000     0.454300000000     0.507610000000     0.0382946  
H179     H      0.117700000000     0.543300000000     0.467180000000     0.0445481  
H180     H      0.372920000000     0.454790000000     0.465790000000     0.0425281  
H181     H      0.274300000000     0.502740000000     0.428260000000     0.0508834  
H182     H      0.374380000000     0.542300000000     0.512480000000     0.0467857  
H183     H      0.219090000000     0.501630000000     0.530270000000     0.0422091  
H184     H      0.327480000000     0.513460000000     0.523870000000     0.0383991  
H185     H      0.121760000000     0.458270000000     0.518960000000     0.0492888  
H186     H      0.165570000000     0.538990000000     0.498280000000     0.0405275  
H187     H      0.167640000000     0.489930000000     0.527250000000     0.0390105  
H188     H      0.275630000000     0.504520000000     0.529270000000     0.0423168  
H189     H      0.326940000000     0.463190000000     0.497830000000     0.0413684  
H190     H      0.129060000000     0.511170000000     0.442500000000     0.0439281  
H191     H      0.718900000000     0.513130000000     0.933510000000     0.0471153  
H192     H      0.815460000000     0.557690000000     0.015870000000     0.0369913  
H193     H      0.812640000000     0.472700000000     0.964300000000     0.0409577  
H194     H      0.635040000000     0.456350000000     0.971560000000     0.041685   
H195     H      0.864210000000     0.558060000000     0.988300000000     0.044547   
H196     H      0.672760000000     0.549960000000     0.964310000000     0.036367   
H197     H      0.681040000000     0.459040000000     0.003660000000     0.0363382  
H198     H      0.614500000000     0.547550000000     0.970540000000     0.044399   
H199     H      0.870060000000     0.465230000000     0.973540000000     0.043313   
H200     H      0.775730000000     0.520840000000     0.936150000000     0.0510233  
H201     H      0.872900000000     0.547820000000     0.027960000000     0.0454122  
H202     H      0.715520000000     0.506390000000     0.034240000000     0.0418494  
H203     H      0.824160000000     0.520790000000     0.034650000000     0.037765   
H204     H      0.622630000000     0.457180000000     0.011580000000     0.0467137  
H205     H      0.660620000000     0.542840000000     0.004080000000     0.0408775  
H206     H      0.665230000000     0.490820000000     0.026730000000     0.0383949  
H207     H      0.772010000000     0.511220000000     0.036640000000     0.0420507  
H208     H      0.823560000000     0.472910000000     0.004820000000     0.0416238  
H209     H      0.630000000000     0.520010000000     0.942780000000     0.0431192  
H210     H      0.214690000000     0.486950000000     0.948160000000     0.047568   
H211     H      0.314220000000     0.536530000000     0.022050000000     0.0374898  
H212     H      0.313300000000     0.450120000000     0.972830000000     0.0403079  
H213     H      0.126690000000     0.443510000000     0.997630000000     0.0423697  
H214     H      0.360080000000     0.539950000000     0.990280000000     0.0448969  
H215     H      0.177540000000     0.531590000000     0.979360000000     0.0379488  
H216     H      0.175020000000     0.443540000000     0.025280000000     0.0365889  
H217     H      0.120010000000     0.537740000000     0.987660000000     0.04837    
H218     H      0.371870000000     0.447320000000     0.977010000000     0.0423342  
H219     H      0.271690000000     0.493110000000     0.946210000000     0.0510537  
H220     H      0.373060000000     0.531290000000     0.029130000000     0.045742   
H221     H      0.218380000000     0.487330000000     0.049100000000     0.0422493  
H222     H      0.327290000000     0.500890000000     0.040720000000     0.0378234  
H223     H      0.116990000000     0.452870000000     0.037240000000     0.0455906  
H224     H      0.166100000000     0.528640000000     0.019830000000     0.0425623  
H225     H      0.165600000000     0.479070000000     0.046160000000     0.0380935  
H226     H      0.275100000000     0.490690000000     0.047140000000     0.0422247  
H227     H      0.327760000000     0.452360000000     0.012160000000     0.0413308  
H228     H      0.130560000000     0.507130000000     0.960880000000     0.0453992  
H229     H      0.002010000000     0.435740000000     0.722190000000     0.0479563  
H230     H      0.048500000000     0.510190000000     0.821330000000     0.0372641  
H231     H      0.960240000000     0.464770000000     0.819540000000     0.0423039  
H232     H      0.953980000000     0.479170000000     0.635540000000     0.0459582  
H233     H      0.048020000000     0.480160000000     0.868780000000     0.0454978  
H234     H      0.044480000000     0.470550000000     0.681540000000     0.0367387  
H235     H      0.952580000000     0.507730000000     0.683700000000     0.0385864  
H236     H      0.047250000000     0.480690000000     0.623680000000     0.044972   
H237     H      0.955060000000     0.473010000000     0.877700000000     0.0465344  
H238     H      0.007310000000     0.435180000000     0.779450000000     0.0514444  
H239     H      0.042030000000     0.520310000000     0.879330000000     0.0467492  
H240     H      0.998230000000     0.536820000000     0.723870000000     0.0423881  
H241     H      0.013510000000     0.531270000000     0.832120000000     0.0388887  
H242     H      0.956610000000     0.519860000000     0.625730000000     0.0493121  
H243     H      0.037390000000     0.510870000000     0.671120000000     0.0401787  
H244     H      0.985140000000     0.532200000000     0.672430000000     0.0384398  
H245     H      0.000820000000     0.536130000000     0.780680000000     0.0427514  
H246     H      0.963480000000     0.504910000000     0.831630000000     0.043142   
H247     H      0.019930000000     0.450820000000     0.634940000000     0.0447109  
H248     H      0.940750000000     0.504470000000     0.218500000000     0.0427863  
H249     H      0.963830000000     0.463630000000     0.319800000000     0.0365559  
H250     H      0.000800000000     0.555970000000     0.322620000000     0.0424849  
H251     H      0.036760000000     0.486900000000     0.140530000000     0.0436765  
H252     H      0.940930000000     0.488440000000     0.365290000000     0.0462404  
H253     H      0.971820000000     0.552000000000     0.180430000000     0.0373751  
H254     H      0.014430000000     0.462420000000     0.186260000000     0.0366092  
H255     H      0.966610000000     0.545740000000     0.122070000000     0.0468117  
H256     H      0.007480000000     0.551140000000     0.381300000000     0.0451201  
H257     H      0.934490000000     0.507090000000     0.275290000000     0.0481708  
H258     H      0.968490000000     0.459270000000     0.377890000000     0.045245   
H259     H      0.040950000000     0.509300000000     0.229340000000     0.0465505  
H260     H      0.003150000000     0.470200000000     0.333580000000     0.0411986  
H261     H      0.010510000000     0.456600000000     0.127840000000     0.0442719  
H262     H      0.950540000000     0.517570000000     0.168080000000     0.0389197  
H263     H      0.975040000000     0.466180000000     0.171690000000     0.0402003  
H264     H      0.034780000000     0.508890000000     0.286170000000     0.0429942  
H265     H      0.024190000000     0.523490000000     0.335730000000     0.0407107  
H266     H      0.005950000000     0.549590000000     0.135880000000     0.0432246  
H267     H      0.022550000000     0.731610000000     0.540700000000     0.0464771  
H268     H      0.942450000000     0.817380000000     0.515830000000     0.0374253  
H269     H      0.019830000000     0.813580000000     0.453790000000     0.0417455  
H270     H      0.989550000000     0.635700000000     0.555940000000     0.0419068  
H271     H      0.935290000000     0.859880000000     0.479120000000     0.0460109  
H272     H      0.033320000000     0.680240000000     0.477970000000     0.0372302  
H273     H      0.956530000000     0.679120000000     0.540730000000     0.0372621  
H274     H      0.033050000000     0.621890000000     0.475620000000     0.0474648  
H275     H      0.023760000000     0.872780000000     0.455490000000     0.0439224  
H276     H      0.015880000000     0.787490000000     0.528650000000     0.042646   
H277     H      0.945010000000     0.875760000000     0.516710000000     0.0467336  
H278     H      0.958740000000     0.707830000000     0.466270000000     0.0444466  
H279     H      0.979900000000     0.832230000000     0.528370000000     0.0393584  
H280     H      0.954890000000     0.620130000000     0.538020000000     0.0467637  
H281     H      0.996400000000     0.664280000000     0.465160000000     0.0413782  
H282     H      0.951500000000     0.663930000000     0.501680000000     0.0409761  
H283     H      0.952110000000     0.763730000000     0.454180000000     0.0502995  
H284     H      0.024720000000     0.830030000000     0.492130000000     0.0400446  
H285     H      0.042140000000     0.637170000000     0.513640000000     0.0414062  
H286     H      0.034550000000     0.209400000000     0.473850000000     0.0443269  
H287     H      0.977910000000     0.314440000000     0.459340000000     0.037003   
H288     H      0.040780000000     0.316010000000     0.536120000000     0.0418035  
H289     H      0.944160000000     0.136070000000     0.499230000000     0.0415319  
H290     H      0.010860000000     0.359510000000     0.450870000000     0.0460328  
H291     H      0.023790000000     0.175090000000     0.545050000000     0.0379124  
H292     H      0.959530000000     0.181800000000     0.469810000000     0.0367532  
H293     H      0.025810000000     0.116640000000     0.538480000000     0.0475618  
H294     H      0.034880000000     0.374990000000     0.539310000000     0.0439969  
H295     H      0.043630000000     0.265990000000     0.468410000000     0.0503491  
H296     H      0.972580000000     0.372760000000     0.461710000000     0.0462614  
H297     H      0.959330000000     0.227780000000     0.538510000000     0.0464938  
H298     H      0.964860000000     0.328740000000     0.496850000000     0.0392676  
H299     H      0.960990000000     0.123500000000     0.462880000000     0.0465563  
H300     H      0.035580000000     0.162650000000     0.506470000000     0.0420625  
H301     H      0.998200000000     0.166490000000     0.462750000000     0.0406921  
H302     H      0.968410000000     0.284340000000     0.533070000000     0.0429926  
H303     H      0.001450000000     0.329810000000     0.541080000000     0.0403997  
H304     H      0.988560000000     0.131320000000     0.551070000000     0.0415307  
H305     H      0.763000000000     0.046370000000     0.529090000000     0.0463585  
H306     H      0.673650000000     0.968840000000     0.524220000000     0.0375535  
H307     H      0.669460000000     0.040630000000     0.455810000000     0.0413587  
H308     H      0.854270000000     0.005480000000     0.540530000000     0.0417776  
H309     H      0.627120000000     0.956570000000     0.495810000000     0.0485346  
H310     H      0.810210000000     0.045880000000     0.459950000000     0.0370409  
H311     H      0.806990000000     0.976470000000     0.530840000000     0.0369453  
H312     H      0.868120000000     0.037140000000     0.453950000000     0.0459695  
H313     H      0.610590000000     0.044070000000     0.464110000000     0.0428627  
H314     H      0.705860000000     0.041770000000     0.524960000000     0.0423943  
H315     H      0.615310000000     0.973340000000     0.532370000000     0.0457428  
H316     H      0.773770000000     0.975270000000     0.458160000000     0.0439145  
H317     H      0.660110000000     0.007520000000     0.534410000000     0.0378149  
H318     H      0.864750000000     0.967740000000     0.525270000000     0.0460992  
H319     H      0.820870000000     0.006020000000     0.450780000000     0.0399976  
H320     H      0.819090000000     0.965900000000     0.491810000000     0.0401861  
H321     H      0.716710000000     0.970710000000     0.454040000000     0.0512562  
H322     H      0.657080000000     0.047950000000     0.495240000000     0.0389037  
H323     H      0.856690000000     0.054090000000     0.490630000000     0.0420659  
H324     H      0.259930000000     0.956130000000     0.539550000000     0.0465411  
H325     H      0.173030000000     0.962370000000     0.458160000000     0.0374031  
H326     H      0.171820000000     0.035100000000     0.525820000000     0.0415314  
H327     H      0.353340000000     0.941040000000     0.505330000000     0.0418797  
H328     H      0.128050000000     0.993440000000     0.444790000000     0.0460164  
H329     H      0.309690000000     0.023220000000     0.540650000000     0.0380501  
H330     H      0.308190000000     0.950720000000     0.472790000000     0.037278   
H331     H      0.368080000000     0.027330000000     0.535370000000     0.0486796  
H332     H      0.113060000000     0.030510000000     0.529270000000     0.0438914  
H333     H      0.203400000000     0.962390000000     0.531550000000     0.042545   
H334     H      0.114480000000     0.957550000000     0.461870000000     0.0458645  
H335     H      0.277640000000     0.024590000000     0.467440000000     0.044492   
H336     H      0.158720000000     0.954670000000     0.497100000000     0.038662   
H337     H      0.366270000000     0.953800000000     0.467480000000     0.0478275  
H338     H      0.322720000000     0.031450000000     0.501360000000     0.0424071  
H339     H      0.322050000000     0.989130000000     0.461850000000     0.0411706  
H340     H      0.221130000000     0.030780000000     0.459400000000     0.0505374  
H341     H      0.157520000000     0.996800000000     0.535680000000     0.0398393  
H342     H      0.354740000000     0.990850000000     0.551490000000     0.0422596  
H343     H      0.030890000000     0.785790000000     0.026090000000     0.0431746  
H344     H      0.972860000000     0.681630000000     0.037270000000     0.0371084  
H345     H      0.037940000000     0.679790000000     0.962380000000     0.0414535  
H346     H      0.944730000000     0.862470000000     0.996610000000     0.0428958  
H347     H      0.005170000000     0.636470000000     0.046920000000     0.0462036  
H348     H      0.023970000000     0.818000000000     0.953290000000     0.0372243  
H349     H      0.957920000000     0.817010000000     0.027220000000     0.0371688  
H350     H      0.028240000000     0.876360000000     0.957500000000     0.046483   
H351     H      0.031480000000     0.620670000000     0.958890000000     0.0436428  
H352     H      0.039070000000     0.729060000000     0.031300000000     0.0499297  
H353     H      0.967270000000     0.623440000000     0.034630000000     0.0466459  
H354     H      0.958130000000     0.769000000000     0.958260000000     0.0470619  
H355     H      0.961000000000     0.667410000000     0.999330000000     0.038949   
H356     H      0.962580000000     0.875760000000     0.032210000000     0.0457945  
H357     H      0.035220000000     0.831600000000     0.991650000000     0.0395126  
H358     H      0.997110000000     0.830800000000     0.034430000000     0.0392473  
H359     H      0.966300000000     0.712270000000     0.963480000000     0.0430852  
H360     H      0.998670000000     0.666260000000     0.956380000000     0.0395502  
H361     H      0.990830000000     0.862690000000     0.944340000000     0.04332    
H362     H      0.020410000000     0.288300000000     0.964290000000     0.0444128  
H363     H      0.033550000000     0.180940000000     0.018110000000     0.0374982  
H364     H      0.962230000000     0.181050000000     0.949070000000     0.042778   
H365     H      0.982740000000     0.358880000000     0.052530000000     0.0416331  
H366     H      0.045250000000     0.137480000000     0.983870000000     0.045752   
H367     H      0.946920000000     0.318850000000     0.968970000000     0.0386953  
H368     H      0.015880000000     0.314650000000     0.040160000000     0.0369319  
H369     H      0.950730000000     0.377420000000     0.968100000000     0.0495383  
H370     H      0.959630000000     0.121970000000     0.951960000000     0.0465967  
H371     H      0.028680000000     0.232270000000     0.954060000000     0.0501475  
H372     H      0.031890000000     0.122430000000     0.020700000000     0.0478348  
H373     H      0.950180000000     0.265320000000     0.032980000000     0.0473804  
H374     H      0.995410000000     0.165550000000     0.027520000000     0.0407731  
H375     H      0.020220000000     0.373130000000     0.040080000000     0.046976   
H376     H      0.985790000000     0.333120000000     0.960820000000     0.0428206  
H377     H      0.026100000000     0.330690000000     0.002460000000     0.0409683  
H378     H      0.958540000000     0.209290000000     0.022840000000     0.0446247  
H379     H      0.954260000000     0.165440000000     0.987250000000     0.0428993  
H380     H      0.936100000000     0.361810000000     0.004250000000     0.0427045  
H381     H      0.705220000000     0.023200000000     0.025210000000     0.0445519  
H382     H      0.813490000000     0.967700000000     0.035680000000     0.038344   
H383     H      0.809670000000     0.037430000000     0.965000000000     0.0424108  
H384     H      0.631350000000     0.936520000000     0.991610000000     0.0423685  
H385     H      0.856960000000     0.002200000000     0.046050000000     0.0486292  
H386     H      0.675110000000     0.016060000000     0.950500000000     0.038025   
H387     H      0.675820000000     0.949390000000     0.024090000000     0.0376665  
H388     H      0.616840000000     0.019310000000     0.953280000000     0.047709   
H389     H      0.868540000000     0.035300000000     0.960040000000     0.0458378  
H390     H      0.761390000000     0.032980000000     0.032070000000     0.0510489  
H391     H      0.871830000000     0.965750000000     0.031440000000     0.0478837  
H392     H      0.725890000000     0.952340000000     0.956280000000     0.0477129  
H393     H      0.827380000000     0.958820000000     0.996830000000     0.0399482  
H394     H      0.617330000000     0.952400000000     0.027880000000     0.0467517  
H395     H      0.660810000000     0.027280000000     0.988610000000     0.0416513  
H396     H      0.661300000000     0.988350000000     0.031640000000     0.0410883  
H397     H      0.782050000000     0.962300000000     0.962960000000     0.0440565  
H398     H      0.825350000000     0.999440000000     0.956120000000     0.0424275  
H399     H      0.631160000000     0.981570000000     0.941480000000     0.0438196  
H400     H      0.223680000000     0.026960000000     0.945470000000     0.0467546  
H401     H      0.314530000000     0.948010000000     0.954550000000     0.0383533  
H402     H      0.310640000000     0.018790000000     0.024120000000     0.0412012  
H403     H      0.128590000000     0.994080000000     0.936560000000     0.0430693  
H404     H      0.359520000000     0.938060000000     0.986770000000     0.0505433  
H405     H      0.178570000000     0.031950000000     0.014900000000     0.0370888  
H406     H      0.172990000000     0.960710000000     0.946030000000     0.0368611  
H407     H      0.120260000000     0.029250000000     0.022570000000     0.0465308  
H408     H      0.369190000000     0.024880000000     0.020860000000     0.0443486  
H409     H      0.280410000000     0.019590000000     0.950690000000     0.0425282  
H410     H      0.373110000000     0.954840000000     0.950800000000     0.0471402  
H411     H      0.208130000000     0.957770000000     0.017370000000     0.0435171  
H412     H      0.327010000000     0.987340000000     0.945520000000     0.0384622  
H413     H      0.114760000000     0.958080000000     0.953220000000     0.0460127  
H414     H      0.164260000000     0.993620000000     0.025450000000     0.0396765  
H415     H      0.160930000000     0.952480000000     0.985620000000     0.03929    
H416     H      0.264850000000     0.950420000000     0.022600000000     0.0510413  
H417     H      0.325470000000     0.027620000000     0.985830000000     0.0390706  
H418     H      0.132350000000     0.044080000000     0.985210000000     0.0432396  
H419     H      0.988040000000     0.030090000000     0.710630000000     0.042447   
H420     H      0.025270000000     0.962290000000     0.809640000000     0.0366656  
H421     H      0.937990000000     0.009630000000     0.809140000000     0.0416995  
H422     H      0.976610000000     0.938550000000     0.625550000000     0.0421624  
H423     H      0.999650000000     0.946060000000     0.857080000000     0.0457481  
H424     H      0.036480000000     0.001320000000     0.674100000000     0.036233   
H425     H      0.947290000000     0.957880000000     0.669980000000     0.0365331  
H426     H      0.035060000000     0.009960000000     0.615760000000     0.0461272  
H427     H      0.945740000000     0.022300000000     0.867180000000     0.0453944  
H428     H      0.983360000000     0.032420000000     0.767180000000     0.0431773  
H429     H      0.030990000000     0.972320000000     0.866790000000     0.0452392  
H430     H      0.988280000000     0.928980000000     0.714480000000     0.0464253  
H431     H      0.022770000000     0.003270000000     0.819560000000     0.0411226  
H432     H      0.946280000000     0.964370000000     0.612000000000     0.0451756  
H433     H      0.003090000000     0.023360000000     0.660350000000     0.03917    
H434     H      0.951760000000     0.998180000000     0.658020000000     0.0410259  
H435     H      0.980700000000     0.931360000000     0.771390000000     0.0482667  
H436     H      0.973300000000     0.030010000000     0.819390000000     0.0405125  
H437     H      0.037500000000     0.969690000000     0.627420000000     0.040931   
H438     H      0.998320000000     0.961380000000     0.269970000000     0.0432646  
H439     H      0.038330000000     0.033100000000     0.171020000000     0.0368576  
H440     H      0.951500000000     0.985000000000     0.173760000000     0.0417043  
H441     H      0.983770000000     0.051780000000     0.357050000000     0.0438191  
H442     H      0.011130000000     0.050270000000     0.124790000000     0.0473005  
H443     H      0.042940000000     0.985170000000     0.311420000000     0.0374794  
H444     H      0.957360000000     0.035450000000     0.309880000000     0.0372715  
H445     H      0.035810000000     0.975120000000     0.369220000000     0.048031   
H446     H      0.956320000000     0.974570000000     0.115380000000     0.0446294  
H447     H      0.996120000000     0.961080000000     0.213350000000     0.042625   
H448     H      0.041790000000     0.024070000000     0.113050000000     0.0441771  
H449     H      0.001670000000     0.062530000000     0.269670000000     0.0472513  
H450     H      0.035850000000     0.992350000000     0.160250000000     0.0404989  
H451     H      0.951260000000     0.027290000000     0.367590000000     0.0454033  
H452     H      0.006850000000     0.965790000000     0.321910000000     0.0409394  
H453     H      0.957970000000     0.994700000000     0.320980000000     0.0425068  
H454     H      0.996470000000     0.062270000000     0.212420000000     0.0486445  
H455     H      0.986480000000     0.965280000000     0.161220000000     0.0391955  
H456     H      0.043350000000     0.015120000000     0.359000000000     0.04295    
N1       N      0.494730000000     0.501080000000     0.610260000000    -0.158369   
N2       N      0.495430000000     0.507740000000     0.676030000000    -0.110336   
N3       N      0.482060000000     0.509080000000     0.809390000000    -0.112512   
N4       N      0.486370000000     0.503180000000     0.875090000000    -0.157008   
N5       N      0.488970000000     0.584100000000     0.624420000000    -0.104324   
N6       N      0.499610000000     0.501170000000     0.373110000000    -0.158303   
N7       N      0.500230000000     0.500440000000     0.307010000000    -0.110542   
N8       N      0.499580000000     0.473040000000     0.176410000000    -0.113166   
N9       N      0.497770000000     0.474200000000     0.110390000000    -0.158001   
N10      N      0.512860000000     0.581360000000     0.350430000000    -0.103333   
N11      N      0.500660000000     0.876580000000     0.480990000000    -0.158886   
N12      N      0.507410000000     0.810940000000     0.477190000000    -0.110225   
N13      N      0.511630000000     0.678780000000     0.497610000000    -0.112566   
N14      N      0.507590000000     0.612950000000     0.496570000000    -0.157167   
N15      N      0.566560000000     0.864920000000     0.429990000000    -0.0994819  
N16      N      0.479600000000     0.112340000000     0.488160000000    -0.158826   
N17      N      0.472940000000     0.177980000000     0.485000000000    -0.110656   
N18      N      0.475910000000     0.311320000000     0.496080000000    -0.112902   
N19      N      0.485680000000     0.376520000000     0.494000000000    -0.157724   
N20      N      0.397200000000     0.126880000000     0.497550000000    -0.104458   
N21      N      0.488920000000     0.873660000000     0.011750000000    -0.158219   
N22      N      0.485560000000     0.808260000000     0.021380000000    -0.110089   
N23      N      0.501770000000     0.675280000000     0.020200000000    -0.112616   
N24      N      0.498140000000     0.610040000000     0.010130000000    -0.15756    
N25      N      0.407500000000     0.853960000000     0.003160000000    -0.102325   
N26      N      0.497360000000     0.109760000000     0.993410000000    -0.159142   
N27      N      0.501080000000     0.175730000000     0.995270000000    -0.110495   
N28      N      0.504090000000     0.308210000000     0.976550000000    -0.112934   
N29      N      0.501940000000     0.374160000000     0.980090000000    -0.158078   
N30      N      0.564160000000     0.125510000000     0.042080000000    -0.103658   
N31      N      0.499530000000     0.984130000000     0.875800000000    -0.158781   
N32      N      0.503720000000     0.979730000000     0.810060000000    -0.110472   
N33      N      0.489200000000     0.980440000000     0.677130000000    -0.112803   
N34      N      0.492040000000     0.986500000000     0.611550000000    -0.157698   
N35      N      0.548150000000     0.916630000000     0.862600000000    -0.103748   
N36      N      0.488780000000     0.989390000000     0.374630000000    -0.158361   
N37      N      0.490900000000     0.987990000000     0.308720000000    -0.1103     
N38      N      0.495390000000     0.010750000000     0.177370000000    -0.112931   
N39      N      0.496300000000     0.007980000000     0.111510000000    -0.157424   
N40      N      0.473460000000     0.909030000000     0.354050000000    -0.101107   
N41      N      0.879000000000     0.484520000000     0.508240000000    -0.158591   
N42      N      0.813510000000     0.476240000000     0.510720000000    -0.110529   
N43      N      0.681060000000     0.472770000000     0.492080000000    -0.112868   
N44      N      0.615500000000     0.480060000000     0.492380000000    -0.157854   
N45      N      0.858520000000     0.494810000000     0.589310000000    -0.104732   
N46      N      0.378750000000     0.501790000000     0.482580000000    -0.159105   
N47      N      0.313210000000     0.506180000000     0.476360000000    -0.110342   
N48      N      0.179940000000     0.495130000000     0.478910000000    -0.112528   
N49      N      0.114680000000     0.497470000000     0.487840000000    -0.157587   
N50      N      0.363770000000     0.495760000000     0.399880000000    -0.104403   
N51      N      0.877040000000     0.510560000000     0.994200000000    -0.159534   
N52      N      0.812080000000     0.517820000000     0.986090000000    -0.110532   
N53      N      0.679630000000     0.503150000000     0.980320000000    -0.113036   
N54      N      0.614160000000     0.499230000000     0.984830000000    -0.158246   
N55      N      0.864490000000     0.511560000000     0.910830000000    -0.104161   
N56      N      0.377050000000     0.493720000000     0.995670000000    -0.159494   
N57      N      0.311350000000     0.495710000000     0.993520000000    -0.110492   
N58      N      0.178330000000     0.485220000000     0.998090000000    -0.112591   
N59      N      0.113240000000     0.490710000000     0.004280000000    -0.157254   
N60      N      0.357060000000     0.490870000000     0.913840000000    -0.104824   
N61      N      0.001900000000     0.490000000000     0.883700000000    -0.15791    
N62      N      0.006520000000     0.483540000000     0.818210000000    -0.110274   
N63      N      0.996890000000     0.485010000000     0.684880000000    -0.112746   
N64      N      0.998710000000     0.492870000000     0.619540000000    -0.15725    
N65      N      0.996150000000     0.407080000000     0.868960000000    -0.104171   
N66      N      0.982580000000     0.507360000000     0.384280000000    -0.159044   
N67      N      0.978810000000     0.511220000000     0.318500000000    -0.110368   
N68      N      0.996540000000     0.509000000000     0.186060000000    -0.112784   
N69      N      0.994860000000     0.503870000000     0.120410000000    -0.15812    
N70      N      0.934100000000     0.574730000000     0.369890000000    -0.103998   
N71      N      0.981030000000     0.878740000000     0.481300000000    -0.158628   
N72      N      0.978970000000     0.812360000000     0.482370000000    -0.110887   
N73      N      0.996740000000     0.682950000000     0.511660000000    -0.113533   
N74      N      0.997230000000     0.616630000000     0.510940000000    -0.157565   
N75      N      0.970650000000     0.856390000000     0.400760000000    -0.103819   
N76      N      0.008710000000     0.378590000000     0.496530000000    -0.158986   
N77      N      0.012160000000     0.312390000000     0.495420000000    -0.110676   
N78      N      0.989280000000     0.181440000000     0.509730000000    -0.1133     
N79      N      0.988840000000     0.115460000000     0.504200000000    -0.157704   
N80      N      0.090530000000     0.361770000000     0.486280000000    -0.104941   
N81      N      0.608140000000     0.002190000000     0.491710000000    -0.158879   
N82      N      0.673790000000     0.001540000000     0.486610000000    -0.11059    
N83      N      0.805980000000     0.013930000000     0.497970000000    -0.113252   
N84      N      0.871480000000     0.006930000000     0.494170000000    -0.158342   
N85      N      0.622580000000     0.989290000000     0.409720000000    -0.101465   
N86      N      0.109150000000     0.998990000000     0.490210000000    -0.159034   
N87      N      0.175140000000     0.001390000000     0.489120000000    -0.110946   
N88      N      0.305950000000     0.984800000000     0.509100000000    -0.113247   
N89      N      0.371830000000     0.987000000000     0.505230000000    -0.157424   
N90      N      0.127520000000     0.078680000000     0.469530000000    -0.103878   
N91      N      0.004690000000     0.617330000000     0.001230000000    -0.158924   
N92      N      0.008340000000     0.683390000000     0.002380000000    -0.110292   
N93      N      0.988260000000     0.814670000000     0.987820000000    -0.113301   
N94      N      0.990280000000     0.880690000000     0.990450000000    -0.158227   
N95      N      0.086440000000     0.633590000000     0.012740000000    -0.103966   
N96      N      0.999890000000     0.117750000000     0.981850000000    -0.158209   
N97      N      0.000280000000     0.184000000000     0.981190000000    -0.110501   
N98      N      0.979220000000     0.313560000000     0.006500000000    -0.112899   
N99      N      0.982090000000     0.379680000000     0.007630000000    -0.157406   
N100     N      0.017300000000     0.138400000000     0.902070000000    -0.103875   
N101     N      0.874740000000     0.005230000000     0.999930000000    -0.158349   
N102     N      0.808650000000     0.004960000000     0.002920000000    -0.110134   
N103     N      0.678610000000     0.980510000000     0.985270000000    -0.113028   
N104     N      0.612570000000     0.982150000000     0.987330000000    -0.15757    
N105     N      0.853750000000     0.084730000000     0.018670000000    -0.101716   
N106     N      0.375900000000     0.984620000000     0.991350000000    -0.158289   
N107     N      0.309950000000     0.980430000000     0.992100000000    -0.110735   
N108     N      0.178600000000     0.998740000000     0.977720000000    -0.113197   
N109     N      0.112790000000     0.998620000000     0.983230000000    -0.157622   
N110     N      0.356250000000     0.966620000000     0.071260000000    -0.102423   
N111     N      0.984450000000     0.990700000000     0.872470000000    -0.159178   
N112     N      0.979340000000     0.981690000000     0.807450000000    -0.110602   
N113     N      0.993390000000     0.976240000000     0.674770000000    -0.113441   
N114     N      0.993310000000     0.982270000000     0.609240000000    -0.15879    
N115     N      0.909710000000     0.953120000000     0.863510000000    -0.103918   
N116     N      0.995030000000     0.006080000000     0.109100000000    -0.159079   
N117     N      0.992750000000     0.013160000000     0.174650000000    -0.1105     
N118     N      0.002300000000     0.013870000000     0.308160000000    -0.112325   
N119     N      0.996830000000     0.006900000000     0.373510000000    -0.157551   
N120     N      0.921080000000     0.043800000000     0.122920000000    -0.101283   
O1       O      0.993500000000     0.999560000000     0.990570000000    -0.367446   
O2       O      0.976900000000     0.984790000000     0.063490000000    -0.30226    
O3       O      0.067380000000     0.016800000000     0.005160000000    -0.303061   
O4       O      0.009670000000     0.927350000000     0.972960000000    -0.304984   
O5       O      0.015140000000     0.019800000000     0.061370000000    -0.301772   
O6       O      0.974500000000     0.927760000000     0.011000000000    -0.302142   
O7       O      0.064760000000     0.979900000000     0.968950000000    -0.30541    
O8       O      0.968600000000     0.012430000000     0.918890000000    -0.30088    
O9       O      0.014910000000     0.071380000000     0.004230000000    -0.300904   
O10      O      0.008340000000     0.979200000000     0.918780000000    -0.30542    
O11      O      0.977910000000     0.070840000000     0.967910000000    -0.299633   
O12      O      0.920690000000     0.020990000000     0.977290000000    -0.299871   
O13      O      0.921880000000     0.983440000000     0.012940000000    -0.301375   
O14      O      0.990170000000     0.997150000000     0.491550000000    -0.367393   
O15      O      0.974430000000     0.020350000000     0.420220000000    -0.302574   
O16      O      0.062650000000     0.977500000000     0.474330000000    -0.30296    
O17      O      0.006920000000     0.066990000000     0.518400000000    -0.301896   
O18      O      0.011630000000     0.984170000000     0.419650000000    -0.300814   
O19      O      0.974180000000     0.070780000000     0.478430000000    -0.303023   
O20      O      0.062120000000     0.015590000000     0.509470000000    -0.303566   
O21      O      0.971170000000     0.973240000000     0.561480000000    -0.306009   
O22      O      0.005430000000     0.925040000000     0.468830000000    -0.29964    
O23      O      0.011400000000     0.005740000000     0.564640000000    -0.304756   
O24      O      0.966000000000     0.925620000000     0.502460000000    -0.304169   
O25      O      0.916950000000     0.983550000000     0.509900000000    -0.305058   
O26      O      0.918980000000     0.020190000000     0.473360000000    -0.304092   
O27      O      0.994940000000     0.498310000000     0.002010000000    -0.367398   
O28      O      0.065270000000     0.473550000000     0.021110000000    -0.30157    
O29      O      0.018560000000     0.510980000000     0.930150000000    -0.302584   
O30      O      0.969990000000     0.427300000000     0.986180000000    -0.303213   
O31      O      0.067800000000     0.512880000000     0.987350000000    -0.304228   
O32      O      0.005940000000     0.425050000000     0.023310000000    -0.303907   
O33      O      0.978150000000     0.478510000000     0.930220000000    -0.300262   
O34      O      0.923870000000     0.524460000000     0.016390000000    -0.303066   
O35      O      0.018030000000     0.569310000000     0.981120000000    -0.301924   
O36      O      0.922770000000     0.486210000000     0.981400000000    -0.303699   
O37      O      0.982720000000     0.571860000000     0.018810000000    -0.306752   
O38      O      0.977240000000     0.520430000000     0.072730000000    -0.304303   
O39      O      0.010600000000     0.480700000000     0.074790000000    -0.302304   
O40      O      0.996830000000     0.497490000000     0.501350000000    -0.36825    
O41      O      0.020190000000     0.426080000000     0.518770000000    -0.301903   
O42      O      0.926820000000     0.470140000000     0.488980000000    -0.30348    
O43      O      0.977470000000     0.510260000000     0.573560000000    -0.300644   
O44      O      0.986430000000     0.424330000000     0.479650000000    -0.305612   
O45      O      0.020420000000     0.481090000000     0.572070000000    -0.302198   
O46      O      0.923650000000     0.511710000000     0.519910000000    -0.299691   
O47      O      0.014020000000     0.570950000000     0.488700000000    -0.304283   
O48      O      0.974600000000     0.481240000000     0.430290000000    -0.303507   
O49      O      0.976190000000     0.568820000000     0.523940000000    -0.300546   
O50      O      0.004910000000     0.523390000000     0.430240000000    -0.302398   
O51      O      0.066420000000     0.517650000000     0.476420000000    -0.303213   
O52      O      0.070430000000     0.480940000000     0.512860000000    -0.303102   
O53      O      0.494480000000     0.990920000000     0.994230000000    -0.369531   
O54      O      0.424010000000     0.968900000000     0.973410000000    -0.300019   
O55      O      0.473210000000     0.014280000000     0.063710000000    -0.30114    
O56      O      0.507700000000     0.922210000000     0.025090000000    -0.301913   
O57      O      0.421330000000     0.006800000000     0.008710000000    -0.303114   
O58      O      0.478570000000     0.917270000000     0.982500000000    -0.30092    
O59      O      0.516330000000     0.985710000000     0.067160000000    -0.302701   
O60      O      0.566250000000     0.004690000000     0.972840000000    -0.302559   
O61      O      0.473070000000     0.063700000000     0.006260000000    -0.302136   
O62      O      0.566170000000     0.969850000000     0.011210000000    -0.301825   
O63      O      0.516210000000     0.062170000000     0.977590000000    -0.303599   
O64      O      0.510830000000     0.009140000000     0.921800000000    -0.303356   
O65      O      0.482550000000     0.965620000000     0.923100000000    -0.302556   
O66      O      0.489670000000     0.994030000000     0.493080000000    -0.369429   
O67      O      0.500180000000     0.066220000000     0.469900000000    -0.303557   
O68      O      0.419020000000     0.009040000000     0.517960000000    -0.301366   
O69      O      0.466140000000     0.977520000000     0.421720000000    -0.298924   
O70      O      0.470320000000     0.065430000000     0.512280000000    -0.302614   
O71      O      0.508080000000     0.007970000000     0.420870000000    -0.30302    
O72      O      0.417280000000     0.972660000000     0.481050000000    -0.304471   
O73      O      0.515650000000     0.923210000000     0.502470000000    -0.30412    
O74      O      0.477210000000     0.011280000000     0.566530000000    -0.304409   
O75      O      0.473370000000     0.921910000000     0.472610000000    -0.300796   
O76      O      0.508010000000     0.969630000000     0.563240000000    -0.303889   
O77      O      0.562810000000     0.980990000000     0.510700000000    -0.303579   
O78      O      0.559960000000     0.018060000000     0.474590000000    -0.301805   
O79      O      0.495860000000     0.492280000000     0.993130000000    -0.368388   
O80      O      0.519720000000     0.420060000000     0.001290000000    -0.303203   
O81      O      0.423330000000     0.473110000000     0.978840000000    -0.303282   
O82      O      0.477080000000     0.496890000000     0.066640000000    -0.304174   
O83      O      0.478170000000     0.421140000000     0.970360000000    -0.303652   
O84      O      0.519690000000     0.467650000000     0.061930000000    -0.301928   
O85      O      0.424360000000     0.511650000000     0.013480000000    -0.302995   
O86      O      0.509010000000     0.566730000000     0.980610000000    -0.304443   
O87      O      0.471930000000     0.480210000000     0.921360000000    -0.300362   
O88      O      0.482110000000     0.560870000000     0.024530000000    -0.303089   
O89      O      0.508480000000     0.517030000000     0.921830000000    -0.30318    
O90      O      0.565280000000     0.517210000000     0.972790000000    -0.304505   
O91      O      0.569950000000     0.476220000000     0.004200000000    -0.304571   
O92      O      0.497440000000     0.494760000000     0.491700000000    -0.367904   
O93      O      0.425480000000     0.478650000000     0.470630000000    -0.302024   
O94      O      0.474950000000     0.513980000000     0.562190000000    -0.300191   
O95      O      0.504820000000     0.422140000000     0.514780000000    -0.303307   
O96      O      0.425050000000     0.518510000000     0.503680000000    -0.304151   
O97      O      0.477980000000     0.423960000000     0.470420000000    -0.304058   
O98      O      0.514160000000     0.480080000000     0.564860000000    -0.302443   
O99      O      0.571580000000     0.506160000000     0.476800000000    -0.304356   
O100     O      0.482380000000     0.567440000000     0.508870000000    -0.302299   
O101     O      0.566670000000     0.466810000000     0.510210000000    -0.302334   
O102     O      0.524110000000     0.565340000000     0.478240000000    -0.301618   
O103     O      0.520480000000     0.513790000000     0.420880000000    -0.299193   
O104     O      0.480010000000     0.481420000000     0.418800000000    -0.302639   
Zn1      Zn     0.967710000000     0.974170000000     0.018570000000     0.451855   
Zn2      Zn     0.021970000000     0.025880000000     0.014940000000     0.450474   
Zn3      Zn     0.018630000000     0.972520000000     0.963910000000     0.455047   
Zn4      Zn     0.965920000000     0.025230000000     0.964380000000     0.451957   
Zn5      Zn     0.965240000000     0.025970000000     0.466200000000     0.450382   
Zn6      Zn     0.016750000000     0.971170000000     0.464750000000     0.449424   
Zn7      Zn     0.016750000000     0.020770000000     0.520250000000     0.452344   
Zn8      Zn     0.961800000000     0.970730000000     0.515530000000     0.452542   
Zn9      Zn     0.018650000000     0.470100000000     0.029400000000     0.449538   
Zn10     Zn     0.023540000000     0.522490000000     0.975750000000     0.452464   
Zn11     Zn     0.967350000000     0.473290000000     0.975750000000     0.454269   
Zn12     Zn     0.970010000000     0.527490000000     0.026810000000     0.452363   
Zn13     Zn     0.026060000000     0.472520000000     0.525990000000     0.452037   
Zn14     Zn     0.972090000000     0.469000000000     0.475750000000     0.452472   
Zn15     Zn     0.969070000000     0.521810000000     0.528460000000     0.448628   
Zn16     Zn     0.020010000000     0.526480000000     0.474880000000     0.452497   
Zn17     Zn     0.470750000000     0.961620000000     0.968620000000     0.452405   
Zn18     Zn     0.466000000000     0.018060000000     0.017200000000     0.453532   
Zn19     Zn     0.520600000000     0.967870000000     0.023700000000     0.452082   
Zn20     Zn     0.520940000000     0.016380000000     0.967440000000     0.452351   
Zn21     Zn     0.513820000000     0.021050000000     0.465570000000     0.453869   
Zn22     Zn     0.465120000000     0.019540000000     0.521720000000     0.451232   
Zn23     Zn     0.462010000000     0.967660000000     0.467930000000     0.453198   
Zn24     Zn     0.518100000000     0.967800000000     0.517020000000     0.453587   
Zn25     Zn     0.525550000000     0.465040000000     0.014780000000     0.449576   
Zn26     Zn     0.468220000000     0.467180000000     0.966840000000     0.451942   
Zn27     Zn     0.470510000000     0.514890000000     0.023560000000     0.449727   
Zn28     Zn     0.518720000000     0.522420000000     0.967600000000     0.450946   
Zn29     Zn     0.471340000000     0.470170000000     0.463680000000     0.452802   
Zn30     Zn     0.470370000000     0.522500000000     0.515850000000     0.452926   
Zn31     Zn     0.520170000000     0.466720000000     0.519780000000     0.44748    
Zn32     Zn     0.527530000000     0.519370000000     0.467550000000     0.451688   


