data_structure

_audit_creation_method RASPA-1.0
_audit_creation_date 2023-5-25
_audit_author_name 'Poobodin Mano'

_cell_length_a    42.7458
_cell_length_b    42.7318
_cell_length_c    42.84
_cell_angle_alpha 90
_cell_angle_beta  90
_cell_angle_gamma 90
_cell_volume      78251.8

_symmetry_cell_setting          triclinic
_symmetry_space_group_name_Hall 'P 1'
_symmetry_space_group_name_H-M  'P 1'
_symmetry_Int_Tables_number     1

_symmetry_equiv_pos_as_xyz 'x,y,z'

loop_
_atom_site_label
_atom_site_type_symbol
_atom_site_fract_x
_atom_site_fract_y
_atom_site_fract_z
_atom_site_charge
C1       C      0.994210000000     0.993740000000     0.084410000000     0.363164   
C2       C      0.077250000000     0.993450000000     0.997320000000     0.360686   
C3       C      0.990800000000     0.907490000000     0.994590000000     0.361893   
C4       C      0.988380000000     0.997860000000     0.911730000000     0.359824   
C5       C      0.986250000000     0.080660000000     0.999940000000     0.358668   
C6       C      0.903320000000     0.990310000000     0.002870000000     0.362966   
C7       C      0.988590000000     0.000450000000     0.411240000000     0.368336   
C8       C      0.077100000000     0.998500000000     0.494800000000     0.36216    
C9       C      0.994470000000     0.087560000000     0.498920000000     0.363613   
C10      C      0.992820000000     0.998400000000     0.584570000000     0.362245   
C11      C      0.983860000000     0.915160000000     0.496200000000     0.363936   
C12      C      0.903610000000     0.009000000000     0.500070000000     0.364814   
C13      C      0.987390000000     0.408200000000     0.993400000000     0.362422   
C14      C      0.002740000000     0.490210000000     0.083310000000     0.362525   
C15      C      0.084730000000     0.486970000000     0.998130000000     0.366042   
C16      C      0.005850000000     0.580300000000     0.994460000000     0.362264   
C17      C      0.911730000000     0.505770000000     0.002490000000     0.36158    
C18      C      0.998030000000     0.493550000000     0.910900000000     0.361925   
C19      C      0.004290000000     0.415190000000     0.497050000000     0.36754    
C20      C      0.008520000000     0.503800000000     0.410050000000     0.363496   
C21      C      0.916360000000     0.494350000000     0.490300000000     0.363932   
C22      C      0.996090000000     0.587890000000     0.498180000000     0.361288   
C23      C      0.088890000000     0.502770000000     0.501000000000     0.361495   
C24      C      0.998810000000     0.503350000000     0.583330000000     0.360816   
C25      C      0.404190000000     0.998610000000     0.986460000000     0.361037   
C26      C      0.485910000000     0.987540000000     0.073470000000     0.360608   
C27      C      0.486460000000     0.905360000000     0.979120000000     0.363133   
C28      C      0.576970000000     0.984140000000     0.991380000000     0.361652   
C29      C      0.498150000000     0.078600000000     0.987930000000     0.359787   
C30      C      0.491560000000     0.997360000000     0.900650000000     0.362925   
C31      C      0.404470000000     0.990530000000     0.487320000000     0.363036   
C32      C      0.491150000000     0.990640000000     0.400610000000     0.359765   
C33      C      0.485260000000     0.082480000000     0.485520000000     0.360747   
C34      C      0.577850000000     0.998950000000     0.481940000000     0.360124   
C35      C      0.493840000000     0.909340000000     0.495310000000     0.362332   
C36      C      0.493520000000     0.999170000000     0.573570000000     0.361845   
C37      C      0.412230000000     0.480970000000     0.990590000000     0.362333   
C38      C      0.509910000000     0.405410000000     0.996510000000     0.363123   
C39      C      0.501630000000     0.487810000000     0.906820000000     0.361187   
C40      C      0.584630000000     0.501460000000     0.999280000000     0.359879   
C41      C      0.492530000000     0.496420000000     0.079340000000     0.361266   
C42      C      0.488210000000     0.578560000000     0.987480000000     0.360289   
C43      C      0.416640000000     0.501070000000     0.494640000000     0.360569   
C44      C      0.500610000000     0.408950000000     0.498210000000     0.361042   
C45      C      0.499780000000     0.495210000000     0.406810000000     0.359918   
C46      C      0.589530000000     0.492620000000     0.486430000000     0.362411   
C47      C      0.505420000000     0.498150000000     0.579740000000     0.3599     
C48      C      0.509040000000     0.582980000000     0.493840000000     0.362583   
C49      C      0.532540000000     0.485320000000     0.825550000000    -0.0245314  
C50      C      0.480810000000     0.482660000000     0.661670000000    -0.0286297  
C51      C      0.531490000000     0.514140000000     0.628600000000    -0.00958891 
C52      C      0.475190000000     0.494590000000     0.628540000000    -0.0105266  
C53      C      0.507520000000     0.466510000000     0.723390000000    -0.0545893  
C54      C      0.507220000000     0.518420000000     0.763160000000    -0.0561627  
C55      C      0.506280000000     0.496880000000     0.710630000000     0.0623046  
C56      C      0.534540000000     0.500760000000     0.661660000000    -0.02898    
C57      C      0.505600000000     0.488050000000     0.775890000000     0.0650042  
C58      C      0.478370000000     0.501930000000     0.823970000000    -0.00277251 
C59      C      0.506620000000     0.462250000000     0.755740000000    -0.0513622  
C60      C      0.472150000000     0.490630000000     0.857430000000    -0.0594596  
C61      C      0.529130000000     0.472150000000     0.858640000000    -0.00907162 
C62      C      0.507010000000     0.522670000000     0.730810000000    -0.0519351  
C63      C      0.453040000000     0.460900000000     0.857260000000     0.315002   
C64      C      0.479710000000     0.520570000000     0.325570000000    -0.024014   
C65      C      0.486280000000     0.470820000000     0.161950000000    -0.0290544  
C66      C      0.495520000000     0.528710000000     0.127010000000    -0.0102412  
C67      C      0.473610000000     0.473350000000     0.128620000000    -0.00938124 
C68      C      0.520130000000     0.499200000000     0.223810000000    -0.0540625  
C69      C      0.467070000000     0.497050000000     0.261970000000    -0.0560875  
C70      C      0.490140000000     0.500020000000     0.210130000000     0.0621901  
C71      C      0.506470000000     0.523810000000     0.160650000000    -0.0288848  
C72      C      0.496980000000     0.498780000000     0.275680000000     0.0650515  
C73      C      0.501890000000     0.468560000000     0.323380000000    -0.00442564 
C74      C      0.523380000000     0.499160000000     0.256280000000    -0.051755   
C75      C      0.514930000000     0.470770000000     0.356820000000    -0.0579436  
C76      C      0.490830000000     0.525810000000     0.359040000000    -0.00960058 
C77      C      0.463790000000     0.498250000000     0.229530000000    -0.0519091  
C78      C      0.549940000000     0.475580000000     0.356120000000     0.317359   
C79      C      0.522430000000     0.829930000000     0.516570000000    -0.0236189  
C80      C      0.487390000000     0.666070000000     0.479600000000    -0.0287738  
C81      C      0.536090000000     0.630770000000     0.511770000000    -0.00999954 
C82      C      0.495050000000     0.632920000000     0.468720000000    -0.0100263  
C83      C      0.528360000000     0.735080000000     0.479390000000    -0.0520721  
C84      C      0.484700000000     0.757680000000     0.522460000000    -0.0516031  
C85      C      0.511260000000     0.713920000000     0.497600000000     0.0624213  
C86      C      0.526570000000     0.664210000000     0.520430000000    -0.0288376  
C87      C      0.501540000000     0.778820000000     0.503970000000     0.0651472  
C88      C      0.481130000000     0.824750000000     0.478130000000    -0.00297314 
C89      C      0.523610000000     0.767270000000     0.482450000000    -0.0563555  
C90      C      0.469400000000     0.858270000000     0.483800000000    -0.0588054  
C91      C      0.512690000000     0.863380000000     0.524720000000    -0.0103027  
C92      C      0.489430000000     0.725460000000     0.519370000000    -0.0547407  
C93      C      0.439510000000     0.858140000000     0.502610000000     0.31552    
C94      C      0.507540000000     0.165530000000     0.471910000000    -0.0241102  
C95      C      0.473670000000     0.328300000000     0.517170000000    -0.0289075  
C96      C      0.524740000000     0.358590000000     0.483640000000    -0.0105816  
C97      C      0.483650000000     0.361450000000     0.526470000000    -0.0100772  
C98      C      0.511950000000     0.256220000000     0.517110000000    -0.0519035  
C99      C      0.466710000000     0.235410000000     0.474780000000    -0.0514767  
C100     C      0.494210000000     0.278130000000     0.500440000000     0.0624297  
C101     C      0.512720000000     0.325760000000     0.476210000000    -0.028397   
C102     C      0.484690000000     0.213500000000     0.491210000000     0.0650692  
C103     C      0.468780000000     0.163700000000     0.513140000000    -0.00317797 
C104     C      0.507300000000     0.224160000000     0.512630000000    -0.0563382  
C105     C      0.458710000000     0.130250000000     0.504400000000    -0.0587741  
C106     C      0.499290000000     0.132630000000     0.460560000000    -0.00968691 
C107     C      0.471360000000     0.267480000000     0.479270000000    -0.0546048  
C108     C      0.427600000000     0.130470000000     0.487700000000     0.315256   
C109     C      0.459960000000     0.824870000000     0.957340000000    -0.0243511  
C110     C      0.503530000000     0.663790000000     0.998780000000    -0.0303264  
C111     C      0.459700000000     0.623630000000     0.965330000000    -0.0102432  
C112     C      0.497930000000     0.630480000000     0.010500000000    -0.00878988 
C113     C      0.457360000000     0.729270000000     0.994480000000    -0.0521817  
C114     C      0.501700000000     0.754080000000     0.953380000000    -0.0517148  
C115     C      0.476980000000     0.709000000000     0.977840000000     0.0622903  
C116     C      0.467120000000     0.657430000000     0.955980000000    -0.0288049  
C117     C      0.482480000000     0.774370000000     0.970460000000     0.0651933  
C118     C      0.499740000000     0.820890000000     0.997360000000    -0.00474508 
C119     C      0.460020000000     0.761690000000     0.990930000000    -0.0568748  
C120     C      0.510740000000     0.854720000000     0.992260000000    -0.0585448  
C121     C      0.468750000000     0.858810000000     0.949790000000    -0.00894753 
C122     C      0.499070000000     0.721660000000     0.956960000000    -0.0545541  
C123     C      0.541490000000     0.855400000000     0.974880000000     0.315758   
C124     C      0.529300000000     0.159220000000     0.973120000000    -0.0242161  
C125     C      0.491830000000     0.322150000000     0.012660000000    -0.0274698  
C126     C      0.539730000000     0.358460000000     0.980460000000    -0.0109619  
C127     C      0.498940000000     0.355500000000     0.023420000000    -0.00973501 
C128     C      0.494590000000     0.263150000000     0.972170000000    -0.0545431  
C129     C      0.529120000000     0.221230000000     0.008660000000    -0.05539    
C130     C      0.516180000000     0.274700000000     0.994170000000     0.0620448  
C131     C      0.531000000000     0.324790000000     0.971750000000    -0.0282322  
C132     C      0.507390000000     0.209710000000     0.986780000000     0.064214   
C133     C      0.487780000000     0.162570000000     0.011280000000    -0.00331691 
C134     C      0.490340000000     0.230920000000     0.968570000000    -0.0512265  
C135     C      0.475960000000     0.129370000000     0.004080000000    -0.0577775  
C136     C      0.520030000000     0.126000000000     0.963500000000    -0.00949305 
C137     C      0.533420000000     0.253470000000     0.012220000000    -0.0511724  
C138     C      0.445850000000     0.130720000000     0.985670000000     0.315947   
C139     C      0.469240000000     0.017440000000     0.655580000000    -0.0237268  
C140     C      0.519750000000     0.004790000000     0.818850000000    -0.0275191  
C141     C      0.460740000000     0.996560000000     0.852140000000    -0.0111763  
C142     C      0.517050000000     0.016180000000     0.852610000000    -0.0104097  
C143     C      0.492730000000     0.030930000000     0.751610000000    -0.0522887  
C144     C      0.492210000000     0.972150000000     0.723060000000    -0.0509017  
C145     C      0.491290000000     0.003940000000     0.770120000000     0.0639838  
C146     C      0.466000000000     0.986720000000     0.818290000000    -0.0286542  
C147     C      0.492130000000     0.999160000000     0.704530000000     0.0644939  
C148     C      0.521780000000     0.996510000000     0.656400000000    -0.00524224 
C149     C      0.493730000000     0.028670000000     0.719100000000    -0.0547705  
C150     C      0.519370000000     0.984160000000     0.622780000000    -0.0575349  
C151     C      0.463720000000     0.007120000000     0.621920000000    -0.00862911 
C152     C      0.492360000000     0.974390000000     0.755580000000    -0.0550915  
C153     C      0.515570000000     0.949000000000     0.622810000000     0.318195   
C154     C      0.481040000000     0.012310000000     0.156590000000    -0.0241143  
C155     C      0.474310000000     0.961390000000     0.320180000000    -0.0286647  
C156     C      0.507880000000     0.012690000000     0.350170000000    -0.00917525 
C157     C      0.485410000000     0.957510000000     0.353890000000    -0.0105692  
C158     C      0.460740000000     0.984070000000     0.256240000000    -0.0544368  
C159     C      0.513730000000     0.983520000000     0.217930000000    -0.0560124  
C160     C      0.490740000000     0.982960000000     0.269860000000     0.0624124  
C161     C      0.494930000000     0.014060000000     0.316900000000    -0.0285518  
C162     C      0.483740000000     0.982340000000     0.204330000000     0.0652168  
C163     C      0.499610000000     0.958800000000     0.154750000000    -0.00284108 
C164     C      0.457400000000     0.983190000000     0.223790000000    -0.0512672  
C165     C      0.489180000000     0.954580000000     0.120670000000    -0.0595196  
C166     C      0.468470000000     0.010770000000     0.123180000000    -0.00885447 
C167     C      0.517070000000     0.983270000000     0.250380000000    -0.0518512  
C168     C      0.460270000000     0.934340000000     0.118880000000     0.315104   
C169     C      0.832930000000     0.514060000000     0.475730000000    -0.0248034  
C170     C      0.673110000000     0.513120000000     0.499510000000    -0.0285236  
C171     C      0.636410000000     0.468680000000     0.463000000000    -0.0100861  
C172     C      0.639340000000     0.521140000000     0.491140000000    -0.0104354  
C173     C      0.737440000000     0.487340000000     0.449450000000    -0.0524428  
C174     C      0.768880000000     0.484710000000     0.506590000000    -0.0552826  
C175     C      0.720280000000     0.489150000000     0.477240000000     0.0626379  
C176     C      0.670190000000     0.462910000000     0.473360000000    -0.028496   
C177     C      0.786070000000     0.482930000000     0.478550000000     0.0654249  
C178     C      0.834830000000     0.464640000000     0.503170000000    -0.00323705 
C179     C      0.769910000000     0.483940000000     0.450100000000    -0.0514562  
C180     C      0.870020000000     0.460520000000     0.496730000000    -0.058564   
C181     C      0.867280000000     0.512070000000     0.466220000000    -0.00858963 
C182     C      0.736260000000     0.486790000000     0.505940000000    -0.0539307  
C183     C      0.875370000000     0.435380000000     0.472530000000     0.314549   
C184     C      0.170820000000     0.531810000000     0.508190000000    -0.0247607  
C185     C      0.334330000000     0.527910000000     0.478880000000    -0.0287056  
C186     C      0.367260000000     0.480480000000     0.515390000000    -0.0092576  
C187     C      0.369240000000     0.532460000000     0.485590000000    -0.0103592  
C188     C      0.270150000000     0.509640000000     0.532590000000    -0.0522166  
C189     C      0.235730000000     0.505060000000     0.477320000000    -0.0556103  
C190     C      0.285930000000     0.509500000000     0.503910000000     0.0623531  
C191     C      0.332940000000     0.478300000000     0.505830000000    -0.0289772  
C192     C      0.220110000000     0.504140000000     0.506300000000     0.065479   
C193     C      0.172130000000     0.479540000000     0.486520000000    -0.00304413 
C194     C      0.237660000000     0.506720000000     0.533780000000    -0.0517594  
C195     C      0.138000000000     0.472970000000     0.495680000000    -0.0593082  
C196     C      0.137160000000     0.528010000000     0.519690000000    -0.00876843 
C197     C      0.268390000000     0.506770000000     0.476170000000    -0.0537102  
C198     C      0.136620000000     0.450580000000     0.522920000000     0.315549   
C199     C      0.664110000000     0.536170000000     0.010680000000    -0.0239874  
C200     C      0.831200000000     0.535960000000     0.986540000000    -0.0290618  
C201     C      0.862020000000     0.490920000000     0.027440000000    -0.00974778 
C202     C      0.865960000000     0.540270000000     0.994390000000    -0.0118592  
C203     C      0.763940000000     0.519580000000     0.037970000000    -0.0523875  
C204     C      0.732530000000     0.513260000000     0.981130000000    -0.0560566  
C205     C      0.781260000000     0.519300000000     0.010170000000     0.0626842  
C206     C      0.827970000000     0.488330000000     0.016950000000    -0.0281787  
C207     C      0.715440000000     0.511990000000     0.009280000000     0.0658263  
C208     C      0.669860000000     0.485500000000     0.986210000000    -0.00318911 
C209     C      0.731500000000     0.515640000000     0.037550000000    -0.0517558  
C210     C      0.636040000000     0.475980000000     0.993780000000    -0.0606274  
C211     C      0.630350000000     0.529360000000     0.020660000000    -0.00908742 
C212     C      0.765160000000     0.515900000000     0.981610000000    -0.0542477  
C213     C      0.635460000000     0.451980000000     0.019650000000     0.316425   
C214     C      0.169500000000     0.507150000000     0.002050000000    -0.0234127  
C215     C      0.332150000000     0.453060000000     0.011320000000    -0.0284076  
C216     C      0.361440000000     0.498870000000     0.970160000000    -0.0099292  
C217     C      0.365930000000     0.447850000000     0.000580000000    -0.00929076 
C218     C      0.267540000000     0.475090000000     0.022030000000    -0.0531918  
C219     C      0.229340000000     0.473520000000     0.969050000000    -0.0551636  
C220     C      0.281280000000     0.472030000000     0.992260000000     0.0621739  
C221     C      0.328340000000     0.502130000000     0.983260000000    -0.0292249  
C222     C      0.215530000000     0.474430000000     0.998910000000     0.0647858  
C223     C      0.164420000000     0.454230000000     0.982580000000    -0.00393952 
C224     C      0.234990000000     0.475650000000     0.025220000000    -0.0503896  
C225     C      0.130130000000     0.451800000000     0.993060000000    -0.0591015  
C226     C      0.136000000000     0.507430000000     0.014680000000    -0.0088484  
C227     C      0.261820000000     0.471690000000     0.965930000000    -0.0507802  
C228     C      0.127310000000     0.431020000000     0.021450000000     0.318376   
C229     C      0.971740000000     0.503080000000     0.828010000000    -0.0245091  
C230     C      0.974350000000     0.485220000000     0.665290000000    -0.028775   
C231     C      0.020750000000     0.523200000000     0.632630000000    -0.00930573 
C232     C      0.968210000000     0.494760000000     0.631380000000    -0.0103629  
C233     C      0.996610000000     0.533450000000     0.732330000000    -0.0517596  
C234     C      0.000130000000     0.475410000000     0.762220000000    -0.0552416  
C235     C      0.995740000000     0.506060000000     0.714390000000     0.0621424  
C236     C      0.024590000000     0.511290000000     0.666060000000    -0.0288891  
C237     C      0.001450000000     0.503100000000     0.780080000000     0.0660125  
C238     C      0.022480000000     0.478360000000     0.827650000000    -0.00390631 
C239     C      0.999700000000     0.532000000000     0.764730000000    -0.0524696  
C240     C      0.028130000000     0.485180000000     0.862500000000    -0.0584887  
C241     C      0.974530000000     0.512680000000     0.862240000000    -0.00917895 
C242     C      0.998230000000     0.476890000000     0.729620000000    -0.053731   
C243     C      0.052820000000     0.510210000000     0.866120000000     0.318078   
C244     C      0.980740000000     0.483990000000     0.166960000000    -0.0249778  
C245     C      0.035540000000     0.484200000000     0.329860000000    -0.0292112  
C246     C      0.987390000000     0.522190000000     0.359700000000    -0.00882449 
C247     C      0.041040000000     0.496610000000     0.362920000000    -0.00938742 
C248     C      0.012910000000     0.469290000000     0.266600000000    -0.053921   
C249     C      0.009200000000     0.520990000000     0.226730000000    -0.0557437  
C250     C      0.013200000000     0.499750000000     0.279300000000     0.0627766  
C251     C      0.984050000000     0.507820000000     0.327150000000    -0.0293805  
C252     C      0.011460000000     0.490670000000     0.213960000000     0.0653911  
C253     C      0.032580000000     0.506790000000     0.163380000000    -0.00266704 
C254     C      0.012650000000     0.464960000000     0.234240000000    -0.0505438  
C255     C      0.036760000000     0.495900000000     0.129460000000    -0.0586571  
C256     C      0.982640000000     0.470790000000     0.133750000000    -0.00908896 
C257     C      0.010710000000     0.525380000000     0.259020000000    -0.0517032  
C258     C      0.058920000000     0.468420000000     0.127630000000     0.313754   
C259     C      0.973080000000     0.833180000000     0.522940000000    -0.024781   
C260     C      0.006970000000     0.671030000000     0.523490000000    -0.0287201  
C261     C      0.972290000000     0.635560000000     0.476640000000    -0.00919356 
C262     C      0.000740000000     0.636230000000     0.529100000000    -0.0100736  
C263     C      0.952780000000     0.733660000000     0.500460000000    -0.0523702  
C264     C      0.007870000000     0.768810000000     0.498840000000    -0.0552935  
C265     C      0.981670000000     0.718320000000     0.502610000000     0.0621109  
C266     C      0.981040000000     0.670050000000     0.473310000000    -0.0293342  
C267     C      0.978750000000     0.784010000000     0.495750000000     0.0653806  
C268     C      0.000250000000     0.832380000000     0.473340000000    -0.00253281 
C269     C      0.951340000000     0.766070000000     0.496750000000    -0.0518242  
C270     C      0.991550000000     0.866520000000     0.466170000000    -0.0591404  
C271     C      0.961630000000     0.866710000000     0.518010000000    -0.00863892 
C272     C      0.009350000000     0.736220000000     0.501240000000    -0.0534312  
C273     C      0.966550000000     0.868070000000     0.441300000000     0.314335   
C274     C      0.996870000000     0.332420000000     0.524380000000    -0.0245605  
C275     C      0.014610000000     0.169670000000     0.522820000000    -0.0282505  
C276     C      0.977590000000     0.137160000000     0.475530000000    -0.00996097 
C277     C      0.005170000000     0.135620000000     0.528680000000    -0.00947979 
C278     C      0.966050000000     0.236300000000     0.500720000000    -0.0516377  
C279     C      0.023750000000     0.266780000000     0.496310000000    -0.0547511  
C280     C      0.993650000000     0.218670000000     0.501400000000     0.063519   
C281     C      0.989690000000     0.170560000000     0.472190000000    -0.0281807  
C282     C      0.995850000000     0.284310000000     0.495100000000     0.0663001  
C283     C      0.019170000000     0.331850000000     0.472610000000    -0.00417174 
C284     C      0.967130000000     0.268720000000     0.497360000000    -0.0513051  
C285     C      0.011730000000     0.366610000000     0.467000000000    -0.0570582  
C286     C      0.986770000000     0.366540000000     0.521770000000    -0.00860074 
C287     C      0.022630000000     0.234140000000     0.498510000000    -0.0532049  
C288     C      0.985540000000     0.369770000000     0.443530000000     0.317024   
C289     C      0.820200000000     0.988250000000     0.512050000000    -0.0246514  
C290     C      0.658660000000     0.027080000000     0.465750000000    -0.0285456  
C291     C      0.628000000000     0.973560000000     0.494840000000    -0.0104527  
C292     C      0.625600000000     0.017900000000     0.455350000000    -0.00974478 
C293     C      0.730650000000     0.988160000000     0.464410000000    -0.0520355  
C294     C      0.750910000000     0.030220000000     0.510160000000    -0.0514722  
C295     C      0.708560000000     0.005140000000     0.481620000000     0.0635307  
C296     C      0.660650000000     0.984980000000     0.503660000000    -0.0290587  
C297     C      0.772990000000     0.012980000000     0.493180000000     0.0661642  
C298     C      0.823350000000     0.029700000000     0.473470000000    -0.00309532 
C299     C      0.762610000000     0.991990000000     0.470050000000    -0.0567138  
C300     C      0.856780000000     0.038510000000     0.483410000000    -0.0581081  
C301     C      0.853030000000     0.995250000000     0.524400000000    -0.00982299 
C302     C      0.718930000000     0.026380000000     0.504530000000    -0.0546473  
C303     C      0.856910000000     0.068280000000     0.502430000000     0.314859   
C304     C      0.157860000000     0.970910000000     0.475750000000    -0.0243106  
C305     C      0.321620000000     0.012150000000     0.504110000000    -0.0278969  
C306     C      0.356150000000     0.963590000000     0.470830000000    -0.0109115  
C307     C      0.355420000000     0.005390000000     0.513390000000    -0.00933732 
C308     C      0.260060000000     0.007820000000     0.468000000000    -0.0538202  
C309     C      0.221380000000     0.973520000000     0.508080000000    -0.0557087  
C310     C      0.273420000000     0.986820000000     0.489540000000     0.062717   
C311     C      0.322050000000     0.972270000000     0.464010000000    -0.0279844  
C312     C      0.208030000000     0.994600000000     0.486630000000     0.0648604  
C313     C      0.161600000000     0.012790000000     0.513530000000    -0.00263222 
C314     C      0.227610000000     0.011570000000     0.466610000000    -0.0504234  
C315     C      0.127580000000     0.023180000000     0.508100000000    -0.0581294  
C316     C      0.123970000000     0.978900000000     0.467760000000    -0.00892374 
C317     C      0.253820000000     0.969720000000     0.509430000000    -0.0512266  
C318     C      0.126650000000     0.053240000000     0.489550000000     0.316855   
C319     C      0.011620000000     0.663020000000     0.019690000000    -0.0238863  
C320     C      0.010660000000     0.827150000000     0.967430000000    -0.0287492  
C321     C      0.974970000000     0.856920000000     0.017310000000    -0.00829085 
C322     C      0.997780000000     0.860140000000     0.962450000000    -0.0100083  
C323     C      0.027120000000     0.764210000000     0.990620000000    -0.0540765  
C324     C      0.975880000000     0.723580000000     0.992990000000    -0.0565067  
C325     C      0.996520000000     0.776530000000     0.990350000000     0.0623185  
C326     C      0.989640000000     0.824360000000     0.019910000000    -0.0290569  
C327     C      0.006360000000     0.711230000000     0.990610000000     0.0656312  
C328     C      0.991850000000     0.661540000000     0.966590000000    -0.00298975 
C329     C      0.031840000000     0.731840000000     0.990150000000    -0.0510707  
C330     C      0.002970000000     0.627720000000     0.961750000000    -0.0585022  
C331     C      0.024900000000     0.629830000000     0.017210000000    -0.00874709 
C332     C      0.971110000000     0.755900000000     0.992250000000    -0.0517557  
C333     C      0.031800000000     0.626680000000     0.941380000000     0.313694   
C334     C      0.957620000000     0.161130000000     0.982110000000    -0.0240172  
C335     C      0.007290000000     0.324380000000     0.984540000000    -0.029648   
C336     C      0.953040000000     0.362340000000     0.001030000000    -0.00854541 
C337     C      0.004530000000     0.357630000000     0.971650000000    -0.00867604 
C338     C      0.978820000000     0.263750000000     0.022760000000    -0.053026   
C339     C      0.978230000000     0.225620000000     0.969690000000    -0.0554536  
C340     C      0.976800000000     0.277550000000     0.992930000000     0.0619571  
C341     C      0.957740000000     0.328520000000     0.011770000000    -0.0289434  
C342     C      0.977940000000     0.211790000000     0.999560000000     0.0641253  
C343     C      0.009310000000     0.164850000000     0.004900000000    -0.0032548  
C344     C      0.978760000000     0.231190000000     0.025920000000    -0.0506319  
C345     C      0.007950000000     0.131180000000     0.017610000000    -0.0579487  
C346     C      0.953340000000     0.127430000000     0.993110000000    -0.0110006  
C347     C      0.977000000000     0.258130000000     0.966560000000    -0.0517972  
C348     C      0.002280000000     0.131260000000     0.052420000000     0.317235   
C349     C      0.656580000000     0.964710000000     0.021680000000    -0.0231089  
C350     C      0.819430000000     0.002560000000     0.982570000000    -0.027922   
C351     C      0.856440000000     0.971120000000     0.030410000000    -0.0100172  
C352     C      0.852640000000     0.013980000000     0.989150000000    -0.0110097  
C353     C      0.760700000000     0.961990000000     0.986600000000    -0.0546043  
C354     C      0.719450000000     0.998620000000     0.021770000000    -0.0587549  
C355     C      0.772580000000     0.984070000000     0.007930000000     0.0619896  
C356     C      0.822950000000     0.961920000000     0.021810000000    -0.0286621  
C357     C      0.707570000000     0.976870000000     0.000120000000     0.067294   
C358     C      0.661600000000     0.002720000000     0.980070000000    -0.0022091  
C359     C      0.728420000000     0.958500000000     0.982810000000    -0.0530549  
C360     C      0.628230000000     0.996780000000     0.968280000000    -0.0597736  
C361     C      0.623060000000     0.956420000000     0.012270000000    -0.00959801 
C362     C      0.751720000000     0.002090000000     0.025590000000    -0.0499067  
C363     C      0.628740000000     0.977790000000     0.938530000000     0.317137   
C364     C      0.159530000000     0.018330000000     0.011850000000    -0.0231992  
C365     C      0.321070000000     0.977400000000     0.972020000000    -0.0290643  
C366     C      0.356550000000     0.026440000000     0.003500000000    -0.00982433 
C367     C      0.354340000000     0.984590000000     0.961230000000    -0.0101798  
C368     C      0.252400000000     0.019230000000     0.970920000000    -0.0522965  
C369     C      0.229280000000     0.977060000000     0.015180000000    -0.049771   
C370     C      0.273340000000     0.002030000000     0.989290000000     0.063509   
C371     C      0.322990000000     0.017390000000     0.012080000000    -0.0271461  
C372     C      0.208340000000     0.994240000000     0.996780000000     0.0630793  
C373     C      0.159770000000     0.976760000000     0.973450000000    -0.00407944 
C374     C      0.220150000000     0.015440000000     0.974540000000    -0.0546083  
C375     C      0.126030000000     0.966990000000     0.981270000000    -0.0583433  
C376     C      0.126220000000     0.010690000000     0.022250000000    -0.00834046 
C377     C      0.261540000000     0.980810000000     0.011520000000    -0.0552168  
C378     C      0.125760000000     0.936920000000     0.999810000000     0.314898   
C379     C      0.965550000000     0.990130000000     0.666720000000    -0.0255044  
C380     C      0.964880000000     0.016680000000     0.828980000000    -0.0285765  
C381     C      0.012900000000     0.981580000000     0.862680000000    -0.00906264 
C382     C      0.959240000000     0.008730000000     0.863420000000    -0.00927084 
C383     C      0.988240000000     0.965230000000     0.764770000000    -0.0522169  
C384     C      0.991190000000     0.021390000000     0.731460000000    -0.0550354  
C385     C      0.986490000000     0.993670000000     0.780930000000     0.0618684  
C386     C      0.015920000000     0.992570000000     0.828970000000    -0.0293094  
C387     C      0.993680000000     0.992670000000     0.715440000000     0.0649799  
C388     C      0.016690000000     0.014280000000     0.667410000000    -0.00293804 
C389     C      0.992050000000     0.964740000000     0.732440000000    -0.0518031  
C390     C      0.023130000000     0.005720000000     0.633100000000    -0.0581645  
C391     C      0.969380000000     0.978800000000     0.633150000000    -0.00838579 
C392     C      0.988550000000     0.021890000000     0.764010000000    -0.0532085  
C393     C      0.047060000000     0.979800000000     0.631150000000     0.315076   
C394     C      0.015830000000     0.990240000000     0.329330000000    -0.024872   
C395     C      0.016030000000     0.014990000000     0.166400000000    -0.0279307  
C396     C      0.973800000000     0.972550000000     0.133570000000    -0.00856803 
C397     C      0.023260000000     0.006250000000     0.132500000000    -0.00956442 
C398     C      0.995230000000     0.963940000000     0.232510000000    -0.0518924  
C399     C      0.989630000000     0.021290000000     0.263370000000    -0.0544351  
C400     C      0.996230000000     0.991730000000     0.215190000000     0.0623272  
C401     C      0.968480000000     0.984330000000     0.166720000000    -0.0297244  
C402     C      0.987950000000     0.993190000000     0.280550000000     0.0656061  
C403     C      0.966440000000     0.017680000000     0.328080000000    -0.00340112 
C404     C      0.990740000000     0.964650000000     0.264720000000    -0.0517225  
C405     C      0.959450000000     0.010310000000     0.362540000000    -0.0575972  
C406     C      0.011230000000     0.979610000000     0.362960000000    -0.00882349 
C407     C      0.992750000000     0.020530000000     0.230890000000    -0.0528009  
C408     C      0.933510000000     0.986440000000     0.364960000000     0.316415   
H1       H      0.506990000000     0.546190000000     0.721380000000     0.0464787  
H2       H      0.550980000000     0.471660000000     0.813250000000     0.0371148  
H3       H      0.456250000000     0.501040000000     0.810240000000     0.0383037  
H4       H      0.527740000000     0.539840000000     0.630250000000     0.0430782  
H5       H      0.526450000000     0.446310000000     0.857200000000     0.0560257  
H6       H      0.458210000000     0.483270000000     0.674580000000     0.0379958  
H7       H      0.552240000000     0.514860000000     0.674530000000     0.0361655  
H8       H      0.459900000000     0.477570000000     0.616190000000     0.0468342  
H9       H      0.457940000000     0.509250000000     0.868860000000     0.0696069  
H10      H      0.507740000000     0.538840000000     0.778060000000     0.0430098  
H11      H      0.551100000000     0.476970000000     0.871700000000     0.0449662  
H12      H      0.508280000000     0.446080000000     0.708510000000     0.0433639  
H13      H      0.540280000000     0.510200000000     0.826640000000     0.0385497  
H14      H      0.553910000000     0.510240000000     0.615990000000     0.04456    
H15      H      0.488820000000     0.457910000000     0.660310000000     0.039535   
H16      H      0.543040000000     0.476140000000     0.660560000000     0.0401152  
H17      H      0.506270000000     0.438740000000     0.765190000000     0.0522692  
H18      H      0.485850000000     0.526860000000     0.825110000000     0.0332413  
H19      H      0.462190000000     0.517090000000     0.629920000000     0.0419151  
H20      H      0.452130000000     0.415770000000     0.842380000000     0.181641   
H21      H      0.440590000000     0.497860000000     0.219380000000     0.0464214  
H22      H      0.478430000000     0.543660000000     0.313610000000     0.037887   
H23      H      0.516660000000     0.452200000000     0.309480000000     0.0375718  
H24      H      0.473500000000     0.542560000000     0.127410000000     0.0416433  
H25      H      0.511440000000     0.541670000000     0.358610000000     0.0548041  
H26      H      0.471270000000     0.454030000000     0.175030000000     0.0368849  
H27      H      0.506420000000     0.546830000000     0.172800000000     0.0376134  
H28      H      0.476570000000     0.450290000000     0.116940000000     0.0460347  
H29      H      0.510080000000     0.447890000000     0.368350000000     0.0669198  
H30      H      0.446220000000     0.495420000000     0.276160000000     0.0429842  
H31      H      0.471990000000     0.538240000000     0.371950000000     0.0463014  
H32      H      0.541030000000     0.499180000000     0.209610000000     0.0440469  
H33      H      0.455750000000     0.510390000000     0.326310000000     0.0372172  
H34      H      0.513360000000     0.542900000000     0.114520000000     0.0470463  
H35      H      0.510560000000     0.461350000000     0.161560000000     0.0418153  
H36      H      0.530900000000     0.514830000000     0.160090000000     0.0403723  
H37      H      0.546580000000     0.499550000000     0.266440000000     0.0540115  
H38      H      0.477820000000     0.458550000000     0.323990000000     0.0347974  
H39      H      0.448120000000     0.478470000000     0.129690000000     0.0431479  
H40      H      0.584360000000     0.506310000000     0.344750000000     0.180872   
H41      H      0.475760000000     0.709600000000     0.533570000000     0.0435385  
H42      H      0.533230000000     0.819140000000     0.537630000000     0.0396367  
H43      H      0.461260000000     0.809880000000     0.470120000000     0.0377102  
H44      H      0.558010000000     0.631710000000     0.497820000000     0.0424999  
H45      H      0.498980000000     0.862950000000     0.546770000000     0.0591911  
H46      H      0.478690000000     0.679600000000     0.459150000000     0.0373367  
H47      H      0.547300000000     0.676330000000     0.530490000000     0.0370524  
H48      H      0.472860000000     0.621350000000     0.461620000000     0.0463751  
H49      H      0.464090000000     0.868230000000     0.460350000000     0.0687006  
H50      H      0.467550000000     0.766230000000     0.539000000000     0.0539607  
H51      H      0.534220000000     0.877260000000     0.529260000000     0.0515796  
H52      H      0.545090000000     0.726510000000     0.462440000000     0.0470066  
H53      H      0.540410000000     0.830640000000     0.497760000000     0.0385358  
H54      H      0.541330000000     0.617730000000     0.533620000000     0.0456776  
H55      H      0.468350000000     0.665120000000     0.497330000000     0.0399268  
H56      H      0.508010000000     0.663360000000     0.538650000000     0.0394232  
H57      H      0.536800000000     0.783090000000     0.467750000000     0.043223   
H58      H      0.498730000000     0.825160000000     0.458940000000     0.0337702  
H59      H      0.510220000000     0.634370000000     0.447680000000     0.0427934  
H60      H      0.419860000000     0.844270000000     0.543510000000     0.181768   
H61      H      0.457410000000     0.283910000000     0.466020000000     0.0439238  
H62      H      0.516260000000     0.179260000000     0.451600000000     0.0380387  
H63      H      0.448670000000     0.176240000000     0.523980000000     0.0381553  
H64      H      0.546290000000     0.356490000000     0.498030000000     0.0430269  
H65      H      0.484120000000     0.134610000000     0.439580000000     0.0550374  
H66      H      0.464290000000     0.316290000000     0.538250000000     0.0375912  
H67      H      0.532480000000     0.311800000000     0.466550000000     0.0380165  
H68      H      0.462390000000     0.374940000000     0.533020000000     0.0461074  
H69      H      0.455700000000     0.117400000000     0.526840000000     0.0687477  
H70      H      0.449240000000     0.227540000000     0.458240000000     0.0538661  
H71      H      0.521250000000     0.120830000000     0.453170000000     0.0463184  
H72      H      0.529670000000     0.264080000000     0.533400000000     0.046995   
H73      H      0.526770000000     0.163960000000     0.489390000000     0.0383333  
H74      H      0.531380000000     0.370120000000     0.461330000000     0.0492845  
H75      H      0.454550000000     0.329760000000     0.499560000000     0.0401164  
H76      H      0.494190000000     0.327330000000     0.457990000000     0.0407495  
H77      H      0.521500000000     0.207740000000     0.525630000000     0.0432394  
H78      H      0.487650000000     0.162360000000     0.531030000000     0.0337526  
H79      H      0.498810000000     0.359950000000     0.547510000000     0.0424328  
H80      H      0.404350000000     0.147260000000     0.449870000000     0.181328   
H81      H      0.514660000000     0.706540000000     0.943970000000     0.0433545  
H82      H      0.450400000000     0.813860000000     0.935810000000     0.0383131  
H83      H      0.519660000000     0.806610000000     0.006280000000     0.0397276  
H84      H      0.436840000000     0.623250000000     0.977700000000     0.0429591  
H85      H      0.482880000000     0.859130000000     0.928010000000     0.0555917  
H86      H      0.509990000000     0.678660000000     0.019130000000     0.0384784  
H87      H      0.446170000000     0.667520000000     0.944270000000     0.0373288  
H88      H      0.520590000000     0.620900000000     0.018950000000     0.046118   
H89      H      0.514690000000     0.864740000000     0.015960000000     0.0736153  
H90      H      0.519250000000     0.763490000000     0.937740000000     0.0537798  
H91      H      0.446900000000     0.872100000000     0.945030000000     0.046483   
H92      H      0.440390000000     0.719890000000     0.010750000000     0.0482085  
H93      H      0.441240000000     0.824740000000     0.975420000000     0.0392585  
H94      H      0.457050000000     0.609460000000     0.943710000000     0.0462411  
H95      H      0.523560000000     0.663800000000     0.982140000000     0.0400069  
H96      H      0.486780000000     0.657480000000     0.938920000000     0.0392504  
H97      H      0.445070000000     0.776820000000     0.004630000000     0.0452487  
H98      H      0.481280000000     0.820710000000     0.015720000000     0.038159   
H99      H      0.481780000000     0.631430000000     0.030830000000     0.0426298  
H100     H      0.563040000000     0.843270000000     0.934380000000     0.182204   
H101     H      0.549970000000     0.262010000000     0.029360000000     0.0480442  
H102     H      0.540340000000     0.170920000000     0.952680000000     0.0383844  
H103     H      0.467980000000     0.177120000000     0.020010000000     0.0384496  
H104     H      0.561360000000     0.357950000000     0.994870000000     0.0498827  
H105     H      0.507470000000     0.127090000000     0.940800000000     0.05595    
H106     H      0.483510000000     0.308510000000     0.033190000000     0.0379206  
H107     H      0.552040000000     0.313130000000     0.961800000000     0.0388234  
H108     H      0.476660000000     0.366530000000     0.031060000000     0.0475623  
H109     H      0.470910000000     0.118120000000     0.027010000000     0.0684331  
H110     H      0.542460000000     0.205350000000     0.023150000000     0.0433915  
H111     H      0.541790000000     0.112260000000     0.959590000000     0.0468504  
H112     H      0.480780000000     0.279020000000     0.958110000000     0.0444023  
H113     H      0.547010000000     0.157990000000     0.992160000000     0.0377215  
H114     H      0.545170000000     0.371510000000     0.958670000000     0.050461   
H115     H      0.472650000000     0.322730000000     0.995050000000     0.0406907  
H116     H      0.512530000000     0.325280000000     0.953420000000     0.0409534  
H117     H      0.473440000000     0.222380000000     0.951770000000     0.0539347  
H118     H      0.505430000000     0.161320000000     0.030390000000     0.0339266  
H119     H      0.514660000000     0.354370000000     0.044070000000     0.0443777  
H120     H      0.426690000000     0.143710000000     0.944250000000     0.181459   
H121     H      0.492640000000     0.953070000000     0.769170000000     0.0446883  
H122     H      0.446320000000     0.017830000000     0.667920000000     0.0389902  
H123     H      0.538750000000     0.981890000000     0.669730000000     0.0379582  
H124     H      0.447680000000     0.019070000000     0.852310000000     0.0435988  
H125     H      0.448130000000     0.986290000000     0.622010000000     0.0558117  
H126     H      0.537360000000     0.019610000000     0.806690000000     0.0389445  
H127     H      0.443280000000     0.988130000000     0.805660000000     0.0378545  
H128     H      0.539620000000     0.011560000000     0.864700000000     0.0534339  
H129     H      0.541900000000     0.989900000000     0.610980000000     0.0667221  
H130     H      0.491960000000     0.949270000000     0.712180000000     0.0542655  
H131     H      0.450920000000     0.026130000000     0.609630000000     0.0479194  
H132     H      0.492890000000     0.053810000000     0.762490000000     0.0475524  
H133     H      0.478840000000     0.041650000000     0.655380000000     0.0376973  
H134     H      0.445660000000     0.978760000000     0.863620000000     0.0476645  
H135     H      0.528200000000     0.980120000000     0.818420000000     0.0430333  
H136     H      0.474020000000     0.961940000000     0.818070000000     0.0404905  
H137     H      0.495010000000     0.049960000000     0.705520000000     0.0432454  
H138     H      0.531100000000     0.020870000000     0.656180000000     0.0354338  
H139     H      0.513250000000     0.041930000000     0.852520000000     0.0459765  
H140     H      0.485680000000     0.913510000000     0.633090000000     0.182302   
H141     H      0.540300000000     0.983390000000     0.260460000000     0.0466525  
H142     H      0.466560000000     0.029400000000     0.169870000000     0.0377655  
H143     H      0.499300000000     0.935740000000     0.166900000000     0.0385933  
H144     H      0.533400000000     0.007760000000     0.349070000000     0.0436606  
H145     H      0.442750000000     0.006990000000     0.124000000000     0.0567689  
H146     H      0.473990000000     0.937960000000     0.308840000000     0.0381933  
H147     H      0.509890000000     0.030270000000     0.303070000000     0.0368158  
H148     H      0.467270000000     0.944310000000     0.367040000000     0.0478428  
H149     H      0.508540000000     0.942010000000     0.108590000000     0.0705145  
H150     H      0.534580000000     0.984220000000     0.203660000000     0.0432435  
H151     H      0.472600000000     0.033820000000     0.111830000000     0.0461856  
H152     H      0.439900000000     0.985170000000     0.270490000000     0.0437605  
H153     H      0.505630000000     0.020960000000     0.156460000000     0.039291   
H154     H      0.504840000000     0.036090000000     0.361150000000     0.0458489  
H155     H      0.449980000000     0.970690000000     0.320540000000     0.0398118  
H156     H      0.470700000000     0.023660000000     0.317130000000     0.041285   
H157     H      0.434170000000     0.983230000000     0.213690000000     0.0522987  
H158     H      0.524250000000     0.967250000000     0.154630000000     0.0334698  
H159     H      0.507010000000     0.943010000000     0.353900000000     0.0423676  
H160     H      0.414920000000     0.930660000000     0.132580000000     0.181674   
H161     H      0.723840000000     0.487300000000     0.527910000000     0.0421785  
H162     H      0.820420000000     0.528060000000     0.457690000000     0.0368535  
H163     H      0.823550000000     0.441290000000     0.505800000000     0.0381346  
H164     H      0.636470000000     0.476530000000     0.438250000000     0.0489652  
H165     H      0.868740000000     0.503950000000     0.441600000000     0.0560174  
H166     H      0.686650000000     0.535280000000     0.501490000000     0.0364602  
H167     H      0.681500000000     0.447300000000     0.455870000000     0.0386603  
H168     H      0.628600000000     0.533710000000     0.511180000000     0.0465237  
H169     H      0.880770000000     0.452520000000     0.519040000000     0.0692206  
H170     H      0.780380000000     0.484530000000     0.529060000000     0.0424855  
H171     H      0.877440000000     0.536030000000     0.467180000000     0.0447142  
H172     H      0.725540000000     0.488690000000     0.427170000000     0.0483027  
H173     H      0.830680000000     0.526550000000     0.498460000000     0.0391832  
H174     H      0.623410000000     0.446150000000     0.464150000000     0.0485041  
H175     H      0.673180000000     0.501230000000     0.522630000000     0.0388758  
H176     H      0.670500000000     0.450730000000     0.496350000000     0.0412085  
H177     H      0.782710000000     0.482880000000     0.428300000000     0.051869   
H178     H      0.832330000000     0.477220000000     0.525800000000     0.0327402  
H179     H      0.639490000000     0.537560000000     0.471000000000     0.0426709  
H180     H      0.866330000000     0.422660000000     0.427730000000     0.182263   
H181     H      0.279690000000     0.505970000000     0.453610000000     0.0423094  
H182     H      0.182890000000     0.548700000000     0.523890000000     0.037165   
H183     H      0.185470000000     0.457160000000     0.485700000000     0.0383632  
H184     H      0.368580000000     0.487760000000     0.540290000000     0.0442964  
H185     H      0.137510000000     0.523140000000     0.545180000000     0.0559512  
H186     H      0.323130000000     0.551330000000     0.476840000000     0.0366148  
H187     H      0.320500000000     0.463980000000     0.523650000000     0.0375809  
H188     H      0.380640000000     0.541900000000     0.464240000000     0.0457298  
H189     H      0.126930000000     0.461320000000     0.475190000000     0.0702003  
H190     H      0.222940000000     0.503850000000     0.455590000000     0.0429489  
H191     H      0.124700000000     0.550610000000     0.516260000000     0.0447671  
H192     H      0.283250000000     0.511340000000     0.554160000000     0.0476927  
H193     H      0.170950000000     0.541760000000     0.484150000000     0.0391251  
H194     H      0.377840000000     0.456750000000     0.513620000000     0.0449641  
H195     H      0.331880000000     0.515610000000     0.456100000000     0.0381085  
H196     H      0.330790000000     0.466130000000     0.482930000000     0.0408328  
H197     H      0.226030000000     0.506420000000     0.556240000000     0.0522873  
H198     H      0.172240000000     0.489640000000     0.462550000000     0.0332748  
H199     H      0.371820000000     0.550480000000     0.504150000000     0.0424653  
H200     H      0.148130000000     0.444950000000     0.568590000000     0.181958   
H201     H      0.777530000000     0.515070000000     0.959630000000     0.0421448  
H202     H      0.674370000000     0.552910000000     0.027750000000     0.0367496  
H203     H      0.684790000000     0.464180000000     0.984580000000     0.0373955  
H204     H      0.862670000000     0.501220000000     0.051280000000     0.043112   
H205     H      0.630150000000     0.523190000000     0.045870000000     0.0558853  
H206     H      0.820580000000     0.559400000000     0.982580000000     0.0363359  
H207     H      0.814810000000     0.475630000000     0.035460000000     0.0371936  
H208     H      0.878240000000     0.549170000000     0.973310000000     0.0464808  
H209     H      0.626550000000     0.464770000000     0.972280000000     0.0694716  
H210     H      0.721000000000     0.511260000000     0.958770000000     0.0425518  
H211     H      0.616340000000     0.551120000000     0.017880000000     0.0443229  
H212     H      0.775840000000     0.521850000000     0.060170000000     0.0471005  
H213     H      0.664370000000     0.547510000000     0.987270000000     0.0383432  
H214     H      0.871950000000     0.466900000000     0.028900000000     0.0459156  
H215     H      0.829520000000     0.522270000000     0.964500000000     0.0387639  
H216     H      0.826440000000     0.474340000000     0.995050000000     0.040763   
H217     H      0.718790000000     0.515060000000     0.059420000000     0.0514664  
H218     H      0.669970000000     0.497010000000     0.962890000000     0.0327272  
H219     H      0.868050000000     0.558530000000     0.012760000000     0.0422362  
H220     H      0.645960000000     0.444490000000     0.065300000000     0.181485   
H221     H      0.271980000000     0.470340000000     0.942800000000     0.0488113  
H222     H      0.183830000000     0.523190000000     0.016730000000     0.0386844  
H223     H      0.175220000000     0.430500000000     0.982320000000     0.0396771  
H224     H      0.359960000000     0.489770000000     0.945880000000     0.0496067  
H225     H      0.136640000000     0.503390000000     0.040310000000     0.0627879  
H226     H      0.320960000000     0.429860000000     0.015120000000     0.0388517  
H227     H      0.314240000000     0.515990000000     0.966330000000     0.0376688  
H228     H      0.379420000000     0.437480000000     0.020210000000     0.0470108  
H229     H      0.117200000000     0.440440000000     0.973530000000     0.072852   
H230     H      0.215240000000     0.473840000000     0.948110000000     0.0457679  
H231     H      0.125900000000     0.531110000000     0.010800000000     0.0490495  
H232     H      0.281700000000     0.476710000000     0.042870000000     0.0436971  
H233     H      0.169850000000     0.516200000000     0.977660000000     0.0421386  
H234     H      0.372190000000     0.522560000000     0.969110000000     0.0471183  
H235     H      0.332700000000     0.465800000000     0.033970000000     0.0394751  
H236     H      0.328910000000     0.515180000000     0.005770000000     0.0415852  
H237     H      0.224800000000     0.477260000000     0.048310000000     0.0529689  
H238     H      0.164640000000     0.463220000000     0.958190000000     0.0376546  
H239     H      0.365850000000     0.430440000000     0.981280000000     0.044737   
H240     H      0.139340000000     0.426550000000     0.067110000000     0.188985   
H241     H      0.998340000000     0.455240000000     0.716580000000     0.0427889  
H242     H      0.956180000000     0.520270000000     0.816130000000     0.0372405  
H243     H      0.045300000000     0.476740000000     0.815180000000     0.0390706  
H244     H      0.013300000000     0.548120000000     0.633370000000     0.043631   
H245     H      0.980150000000     0.538070000000     0.863430000000     0.0610313  
H246     H      0.951490000000     0.482810000000     0.677490000000     0.0367574  
H247     H      0.039720000000     0.528150000000     0.678910000000     0.0380129  
H248     H      0.956900000000     0.474790000000     0.619140000000     0.0471713  
H249     H      0.037270000000     0.463210000000     0.873130000000     0.0693027  
H250     H      0.000840000000     0.452650000000     0.773210000000     0.0431028  
H251     H      0.951350000000     0.509380000000     0.873590000000     0.0450322  
H252     H      0.995120000000     0.556080000000     0.721030000000     0.0475101  
H253     H      0.960600000000     0.479580000000     0.826140000000     0.038625   
H254     H      0.043950000000     0.522280000000     0.620890000000     0.0468851  
H255     H      0.986200000000     0.462020000000     0.665330000000     0.0393908  
H256     H      0.036550000000     0.488130000000     0.666030000000     0.0423229  
H257     H      0.000340000000     0.553520000000     0.778070000000     0.0534401  
H258     H      0.010840000000     0.455130000000     0.825650000000     0.0331882  
H259     H      0.951230000000     0.514480000000     0.631260000000     0.041949   
H260     H      0.061720000000     0.556570000000     0.860490000000     0.19016    
H261     H      0.009910000000     0.548910000000     0.268370000000     0.046384   
H262     H      0.965260000000     0.468430000000     0.180950000000     0.0377553  
H263     H      0.055880000000     0.508540000000     0.174920000000     0.0386541  
H264     H      0.994410000000     0.547130000000     0.357210000000     0.0426515  
H265     H      0.988910000000     0.445570000000     0.135030000000     0.0564221  
H266     H      0.058560000000     0.482050000000     0.317900000000     0.0390699  
H267     H      0.968320000000     0.523140000000     0.313160000000     0.0368392  
H268     H      0.053970000000     0.478590000000     0.376480000000     0.0499812  
H269     H      0.047730000000     0.515840000000     0.116770000000     0.0700739  
H270     H      0.006880000000     0.541350000000     0.211940000000     0.0432257  
H271     H      0.959080000000     0.472460000000     0.122850000000     0.0448496  
H272     H      0.013480000000     0.448830000000     0.281420000000     0.0459642  
H273     H      0.970040000000     0.507760000000     0.166480000000     0.0392065  
H274     H      0.964140000000     0.521630000000     0.371340000000     0.0472906  
H275     H      0.024910000000     0.460490000000     0.331680000000     0.0443475  
H276     H      0.972990000000     0.484270000000     0.328840000000     0.0443351  
H277     H      0.013480000000     0.441440000000     0.224850000000     0.0532395  
H278     H      0.022250000000     0.530700000000     0.162840000000     0.0335024  
H279     H      0.056310000000     0.517620000000     0.361430000000     0.0416522  
H280     H      0.067280000000     0.424490000000     0.143740000000     0.183052   
H281     H      0.032140000000     0.725320000000     0.502220000000     0.0423617  
H282     H      0.955740000000     0.820880000000     0.537970000000     0.037362   
H283     H      0.003450000000     0.819240000000     0.451100000000     0.0379281  
H284     H      0.947400000000     0.633880000000     0.484010000000     0.0436315  
H285     H      0.936910000000     0.866080000000     0.509970000000     0.0560015  
H286     H      0.008200000000     0.683100000000     0.546480000000     0.0368309  
H287     H      0.963120000000     0.681480000000     0.458280000000     0.0371122  
H288     H      0.021820000000     0.625740000000     0.540130000000     0.0463004  
H289     H      0.013070000000     0.877740000000     0.456670000000     0.0702032  
H290     H      0.029550000000     0.781820000000     0.498900000000     0.0430876  
H291     H      0.962070000000     0.879010000000     0.540890000000     0.0460042  
H292     H      0.931270000000     0.720290000000     0.501110000000     0.0470903  
H293     H      0.995950000000     0.833300000000     0.535420000000     0.0402951  
H294     H      0.974370000000     0.624230000000     0.453350000000     0.0449199  
H295     H      0.030060000000     0.673390000000     0.511700000000     0.0387018  
H296     H      0.004150000000     0.672320000000     0.461480000000     0.0411963  
H297     H      0.928750000000     0.777370000000     0.494780000000     0.0517436  
H298     H      0.023110000000     0.832430000000     0.485810000000     0.0335756  
H299     H      0.981200000000     0.633950000000     0.546080000000     0.0418297  
H300     H      0.922310000000     0.854670000000     0.430260000000     0.182108   
H301     H      0.044380000000     0.221250000000     0.498230000000     0.0449112  
H302     H      0.980580000000     0.320450000000     0.540790000000     0.038614   
H303     H      0.019830000000     0.319130000000     0.449920000000     0.0401158  
H304     H      0.952360000000     0.137940000000     0.481840000000     0.0534123  
H305     H      0.961140000000     0.367430000000     0.517370000000     0.0635419  
H306     H      0.016540000000     0.181850000000     0.545700000000     0.0390137  
H307     H      0.973320000000     0.183560000000     0.456660000000     0.0398636  
H308     H      0.025270000000     0.123230000000     0.539590000000     0.0520946  
H309     H      0.033140000000     0.377410000000     0.456780000000     0.0719702  
H310     H      0.046350000000     0.278070000000     0.495280000000     0.0451933  
H311     H      0.991070000000     0.378160000000     0.544620000000     0.0474705  
H312     H      0.943570000000     0.224730000000     0.502470000000     0.0505403  
H313     H      0.020900000000     0.330900000000     0.534360000000     0.0418225  
H314     H      0.979490000000     0.125370000000     0.452450000000     0.0496499  
H315     H      0.038010000000     0.169920000000     0.511410000000     0.0426971  
H316     H      0.013190000000     0.170520000000     0.460940000000     0.0432452  
H317     H      0.945490000000     0.281900000000     0.496840000000     0.0546279  
H318     H      0.042930000000     0.330170000000     0.483150000000     0.0367112  
H319     H      0.985670000000     0.135270000000     0.545860000000     0.0455157  
H320     H      0.938810000000     0.364070000000     0.437030000000     0.188985   
H321     H      0.702340000000     0.039640000000     0.518280000000     0.0439436  
H322     H      0.806000000000     0.978510000000     0.531540000000     0.0383477  
H323     H      0.811360000000     0.050770000000     0.463880000000     0.0398441  
H324     H      0.630340000000     0.953280000000     0.478740000000     0.0429172  
H325     H      0.850950000000     0.009320000000     0.546120000000     0.0549839  
H326     H      0.670940000000     0.037980000000     0.445570000000     0.0378439  
H327     H      0.674480000000     0.964530000000     0.511980000000     0.0381135  
H328     H      0.612180000000     0.039620000000     0.450320000000     0.0459377  
H329     H      0.869940000000     0.043030000000     0.461410000000     0.0742876  
H330     H      0.758570000000     0.046460000000     0.528000000000     0.0539568  
H331     H      0.864320000000     0.972690000000     0.530790000000     0.0476579  
H332     H      0.723000000000     0.971630000000     0.446840000000     0.0478506  
H333     H      0.821790000000     0.970140000000     0.493410000000     0.0407559  
H334     H      0.616250000000     0.965060000000     0.516390000000     0.0495887  
H335     H      0.657020000000     0.044830000000     0.484720000000     0.039979   
H336     H      0.658800000000     0.002080000000     0.523200000000     0.0415182  
H337     H      0.779170000000     0.978400000000     0.456590000000     0.0453985  
H338     H      0.824710000000     0.012110000000     0.454320000000     0.0389448  
H339     H      0.627310000000     0.004390000000     0.433230000000     0.0427367  
H340     H      0.838950000000     0.089430000000     0.540930000000     0.181177   
H341     H      0.263790000000     0.953650000000     0.526250000000     0.0490074  
H342     H      0.168910000000     0.960170000000     0.454790000000     0.0384749  
H343     H      0.175780000000     0.033250000000     0.521320000000     0.0400394  
H344     H      0.356540000000     0.941590000000     0.484710000000     0.0515203  
H345     H      0.123480000000     0.991580000000     0.445100000000     0.0555375  
H346     H      0.309030000000     0.021090000000     0.525050000000     0.0403677  
H347     H      0.309840000000     0.951120000000     0.454980000000     0.0391895  
H348     H      0.366930000000     0.028020000000     0.519120000000     0.0537902  
H349     H      0.117340000000     0.027860000000     0.531560000000     0.0736671  
H350     H      0.206770000000     0.960180000000     0.523850000000     0.0449065  
H351     H      0.110970000000     0.956600000000     0.464400000000     0.0475703  
H352     H      0.274690000000     0.021500000000     0.452550000000     0.0449517  
H353     H      0.158240000000     0.953300000000     0.494920000000     0.0396189  
H354     H      0.368140000000     0.958720000000     0.448300000000     0.0501658  
H355     H      0.321220000000     0.030780000000     0.485920000000     0.0437929  
H356     H      0.321430000000     0.990550000000     0.445490000000     0.0402871  
H357     H      0.217640000000     0.027910000000     0.450040000000     0.0542514  
H358     H      0.162110000000     0.995260000000     0.532780000000     0.0371193  
H359     H      0.355410000000     0.990930000000     0.534970000000     0.0457478  
H360     H      0.136810000000     0.072780000000     0.447530000000     0.182091   
H361     H      0.947470000000     0.764990000000     0.993070000000     0.0461252  
H362     H      0.026280000000     0.676410000000     0.036520000000     0.0376572  
H363     H      0.991530000000     0.674010000000     0.943750000000     0.0385002  
H364     H      0.949660000000     0.854300000000     0.011860000000     0.0429751  
H365     H      0.050400000000     0.631310000000     0.012300000000     0.0564133  
H366     H      0.011790000000     0.815100000000     0.944420000000     0.0390946  
H367     H      0.975210000000     0.810240000000     0.036330000000     0.0366821  
H368     H      0.015150000000     0.873820000000     0.948780000000     0.0507662  
H369     H      0.983780000000     0.615510000000     0.949060000000     0.0697624  
H370     H      0.955720000000     0.708410000000     0.994760000000     0.042957   
H371     H      0.022010000000     0.618020000000     0.040170000000     0.0453966  
H372     H      0.047350000000     0.779370000000     0.990520000000     0.0453685  
H373     H      0.987290000000     0.662130000000     0.029000000000     0.0389319  
H374     H      0.976900000000     0.868720000000     0.040380000000     0.0459594  
H375     H      0.034830000000     0.829120000000     0.976890000000     0.0439475  
H376     H      0.013710000000     0.826170000000     0.029730000000     0.0432879  
H377     H      0.055460000000     0.722710000000     0.989250000000     0.0530252  
H378     H      0.967360000000     0.660670000000     0.975390000000     0.0332236  
H379     H      0.976170000000     0.858490000000     0.948100000000     0.0418104  
H380     H      0.076040000000     0.643300000000     0.936280000000     0.182193   
H381     H      0.976420000000     0.268340000000     0.943430000000     0.0463671  
H382     H      0.934180000000     0.172390000000     0.980640000000     0.0378182  
H383     H      0.024990000000     0.179130000000     0.020050000000     0.0379211  
H384     H      0.936320000000     0.362410000000     0.981150000000     0.0406859  
H385     H      0.937750000000     0.127390000000     0.013880000000     0.0554922  
H386     H      0.021270000000     0.310300000000     0.967690000000     0.0388753  
H387     H      0.934380000000     0.317510000000     0.015080000000     0.037941   
H388     H      0.028320000000     0.368150000000     0.970900000000     0.0520576  
H389     H      0.031340000000     0.120510000000     0.013190000000     0.0675411  
H390     H      0.978900000000     0.211520000000     0.948750000000     0.0429064  
H391     H      0.941020000000     0.114230000000     0.974420000000     0.0467628  
H392     H      0.980010000000     0.277840000000     0.043670000000     0.0448904  
H393     H      0.968060000000     0.160660000000     0.958310000000     0.0375503  
H394     H      0.942060000000     0.375800000000     0.020360000000     0.0471301  
H395     H      0.020010000000     0.324670000000     0.007250000000     0.0467047  
H396     H      0.970050000000     0.328910000000     0.034660000000     0.0417058  
H397     H      0.979480000000     0.220950000000     0.049040000000     0.0544642  
H398     H      0.019730000000     0.164750000000     0.981060000000     0.0348841  
H399     H      0.995600000000     0.356440000000     0.947300000000     0.0435392  
H400     H      0.971110000000     0.142910000000     0.086280000000     0.181316   
H401     H      0.760550000000     0.019260000000     0.041960000000     0.0469377  
H402     H      0.667420000000     0.943760000000     0.032700000000     0.0397367  
H403     H      0.676490000000     0.010730000000     0.960250000000     0.0376429  
H404     H      0.855880000000     0.985050000000     0.052320000000     0.0430387  
H405     H      0.623300000000     0.933810000000     0.999440000000     0.0634572  
H406     H      0.805380000000     0.022800000000     0.974120000000     0.0371989  
H407     H      0.811520000000     0.951730000000     0.042830000000     0.0372779  
H408     H      0.863570000000     0.020820000000     0.966600000000     0.0464424  
H409     H      0.618110000000     0.020190000000     0.962830000000     0.0693041  
H410     H      0.703840000000     0.013280000000     0.035250000000     0.0442943  
H411     H      0.609130000000     0.952780000000     0.033900000000     0.0499683  
H412     H      0.776330000000     0.947910000000     0.972550000000     0.0434328  
H413     H      0.656010000000     0.983820000000     0.039340000000     0.0377685  
H414     H      0.869930000000     0.949400000000     0.035260000000     0.0460031  
H415     H      0.820080000000     0.984650000000     0.963680000000     0.0392251  
H416     H      0.823580000000     0.943600000000     0.003320000000     0.0395881  
H417     H      0.719590000000     0.941830000000     0.965930000000     0.0545726  
H418     H      0.661050000000     0.022040000000     0.997530000000     0.0334379  
H419     H      0.851330000000     0.035330000000     0.003950000000     0.0438513  
H420     H      0.640830000000     0.935800000000     0.919840000000     0.182867   
H421     H      0.277220000000     0.967090000000     0.025860000000     0.0446634  
H422     H      0.172270000000     0.028620000000     0.032060000000     0.0394562  
H423     H      0.172940000000     0.956080000000     0.964550000000     0.038157   
H424     H      0.355920000000     0.048100000000     0.989120000000     0.0491473  
H425     H      0.127270000000     0.997370000000     0.044520000000     0.0556934  
H426     H      0.307610000000     0.968410000000     0.951650000000     0.0377957  
H427     H      0.310990000000     0.038440000000     0.021630000000     0.0398261  
H428     H      0.365760000000     0.962170000000     0.954610000000     0.0473292  
H429     H      0.114120000000     0.962550000000     0.958560000000     0.068343   
H430     H      0.220500000000     0.960640000000     0.032340000000     0.053682   
H431     H      0.113970000000     0.033110000000     0.027220000000     0.049085   
H432     H      0.261170000000     0.035510000000     0.953630000000     0.0484325  
H433     H      0.158710000000     0.036190000000     0.992930000000     0.0386767  
H434     H      0.369460000000     0.031990000000     0.025350000000     0.0517982  
H435     H      0.321740000000     0.958700000000     0.990130000000     0.0407838  
H436     H      0.323540000000     0.999190000000     0.030680000000     0.0405938  
H437     H      0.204470000000     0.028960000000     0.960000000000     0.0435466  
H438     H      0.159190000000     0.994400000000     0.954300000000     0.0338802  
H439     H      0.353160000000     0.999400000000     0.939920000000     0.043666   
H440     H      0.139700000000     0.916650000000     0.040390000000     0.181257   
H441     H      0.987950000000     0.044300000000     0.775720000000     0.0423243  
H442     H      0.949500000000     0.973650000000     0.678950000000     0.0373278  
H443     H      0.039200000000     0.016050000000     0.680400000000     0.0387801  
H444     H      0.007440000000     0.956120000000     0.862780000000     0.0455009  
H445     H      0.975450000000     0.953490000000     0.633410000000     0.0556001  
H446     H      0.941890000000     0.017770000000     0.816840000000     0.036884   
H447     H      0.031840000000     0.976100000000     0.816570000000     0.0379043  
H448     H      0.948780000000     0.029490000000     0.875110000000     0.0453372  
H449     H      0.033280000000     0.026960000000     0.621910000000     0.0704223  
H450     H      0.991660000000     0.043420000000     0.719060000000     0.0431092  
H451     H      0.946420000000     0.981150000000     0.621140000000     0.0458071  
H452     H      0.987130000000     0.943320000000     0.777440000000     0.0477305  
H453     H      0.954570000000     0.013780000000     0.667020000000     0.0403785  
H454     H      0.035940000000     0.984620000000     0.874390000000     0.0456179  
H455     H      0.975980000000     0.040210000000     0.827580000000     0.0378555  
H456     H      0.026700000000     0.016300000000     0.828150000000     0.0412107  
H457     H      0.993510000000     0.942460000000     0.720470000000     0.0520539  
H458     H      0.005460000000     0.037790000000     0.667960000000     0.0337504  
H459     H      0.941650000000     0.989600000000     0.864750000000     0.0421956  
H460     H      0.055440000000     0.934250000000     0.641870000000     0.181485   
H461     H      0.992750000000     0.042480000000     0.218360000000     0.0437609  
H462     H      0.030930000000     0.972660000000     0.317430000000     0.0382878  
H463     H      0.944100000000     0.020730000000     0.315020000000     0.0389275  
H464     H      0.983650000000     0.948470000000     0.134630000000     0.0443257  
H465     H      0.003590000000     0.954730000000     0.363020000000     0.0631521  
H466     H      0.038490000000     0.019500000000     0.178760000000     0.0388298  
H467     H      0.954680000000     0.966310000000     0.179480000000     0.0374481  
H468     H      0.032260000000     0.027360000000     0.120250000000     0.0521802  
H469     H      0.951090000000     0.032470000000     0.373430000000     0.0702307  
H470     H      0.988180000000     0.043820000000     0.274750000000     0.0438283  
H471     H      0.034240000000     0.980700000000     0.375060000000     0.047404   
H472     H      0.997480000000     0.941580000000     0.220820000000     0.0477407  
H473     H      0.028220000000     0.013180000000     0.328720000000     0.0410562  
H474     H      0.950730000000     0.971100000000     0.121630000000     0.0455966  
H475     H      0.002020000000     0.036960000000     0.166450000000     0.0415607  
H476     H      0.954540000000     0.006370000000     0.166340000000     0.0427415  
H477     H      0.989860000000     0.942830000000     0.277570000000     0.0528737  
H478     H      0.979280000000     0.040340000000     0.327050000000     0.034006   
H479     H      0.042340000000     0.988570000000     0.132370000000     0.0437933  
H480     H      0.922020000000     0.941110000000     0.356440000000     0.186146   
N1       N      0.501610000000     0.485330000000     0.874920000000    -0.146017   
N2       N      0.502590000000     0.482530000000     0.809060000000    -0.108353   
N3       N      0.504120000000     0.502500000000     0.677420000000    -0.112957   
N4       N      0.504850000000     0.500120000000     0.611640000000    -0.157669   
N5       N      0.499920000000     0.496330000000     0.374820000000    -0.145438   
N6       N      0.501600000000     0.499770000000     0.309110000000    -0.108769   
N7       N      0.485440000000     0.501780000000     0.176730000000    -0.112822   
N8       N      0.489280000000     0.498660000000     0.111070000000    -0.157453   
N9       N      0.493240000000     0.877590000000     0.499910000000    -0.145756   
N10      N      0.494890000000     0.811820000000     0.506820000000    -0.108291   
N11      N      0.515640000000     0.680830000000     0.492450000000    -0.11311    
N12      N      0.511740000000     0.614920000000     0.493040000000    -0.158096   
N13      N      0.482440000000     0.114450000000     0.484680000000    -0.146029   
N14      N      0.479710000000     0.180600000000     0.485310000000    -0.108306   
N15      N      0.500700000000     0.311010000000     0.504780000000    -0.113151   
N16      N      0.501410000000     0.377030000000     0.501270000000    -0.157561   
N17      N      0.487210000000     0.873510000000     0.975080000000    -0.145033   
N18      N      0.487740000000     0.807680000000     0.968040000000    -0.108152   
N19      N      0.474980000000     0.675800000000     0.983900000000    -0.112877   
N20      N      0.483810000000     0.610320000000     0.986240000000    -0.158043   
N21      N      0.499450000000     0.110660000000     0.986720000000    -0.145797   
N22      N      0.501430000000     0.176640000000     0.983110000000    -0.10886    
N23      N      0.520240000000     0.307820000000     0.999630000000    -0.113053   
N24      N      0.514650000000     0.373750000000     0.998660000000    -0.15648    
N25      N      0.493090000000     0.998820000000     0.605540000000    -0.14586    
N26      N      0.490790000000     0.995570000000     0.671040000000    -0.108868   
N27      N      0.489150000000     0.007520000000     0.803580000000    -0.112769   
N28      N      0.490600000000     0.001110000000     0.868950000000    -0.156256   
N29      N      0.482980000000     0.985010000000     0.105230000000    -0.146003   
N30      N      0.479050000000     0.981200000000     0.170920000000    -0.10858    
N31      N      0.495520000000     0.982580000000     0.303280000000    -0.113026   
N32      N      0.492610000000     0.987900000000     0.368790000000    -0.15749    
N33      N      0.884880000000     0.490070000000     0.486230000000    -0.146621   
N34      N      0.819910000000     0.482360000000     0.477720000000    -0.108197   
N35      N      0.686710000000     0.492950000000     0.475180000000    -0.112666   
N36      N      0.621250000000     0.493010000000     0.482260000000    -0.157421   
N37      N      0.120820000000     0.502060000000     0.503670000000    -0.145883   
N38      N      0.186500000000     0.501300000000     0.508940000000    -0.108549   
N39      N      0.319760000000     0.509930000000     0.504290000000    -0.112541   
N40      N      0.384730000000     0.503390000000     0.496280000000    -0.157728   
N41      N      0.616470000000     0.503210000000     0.002760000000    -0.144983   
N42      N      0.681960000000     0.506850000000     0.010310000000    -0.108385   
N43      N      0.815090000000     0.519840000000     0.012350000000    -0.112649   
N44      N      0.880330000000     0.511090000000     0.006210000000    -0.15747    
N45      N      0.116470000000     0.482930000000     0.000040000000    -0.142951   
N46      N      0.181980000000     0.475200000000     0.003480000000    -0.107472   
N47      N      0.314800000000     0.470880000000     0.987520000000    -0.112141   
N48      N      0.380470000000     0.477030000000     0.988990000000    -0.15696    
N49      N      0.999180000000     0.495040000000     0.878950000000    -0.144451   
N50      N      0.002940000000     0.503080000000     0.813830000000    -0.108698   
N51      N      0.993690000000     0.509100000000     0.680800000000    -0.112764   
N52      N      0.997020000000     0.505060000000     0.615220000000    -0.157337   
N53      N      0.006480000000     0.487290000000     0.114940000000    -0.146136   
N54      N      0.012210000000     0.485040000000     0.180650000000    -0.107724   
N55      N      0.015020000000     0.505740000000     0.312520000000    -0.112445   
N56      N      0.011420000000     0.505710000000     0.378260000000    -0.15662    
N57      N      0.980650000000     0.883330000000     0.494440000000    -0.146167   
N58      N      0.975830000000     0.817580000000     0.492560000000    -0.108289   
N59      N      0.981730000000     0.684510000000     0.504360000000    -0.112709   
N60      N      0.991940000000     0.619580000000     0.500110000000    -0.15821    
N61      N      0.003050000000     0.383190000000     0.496200000000    -0.143614   
N62      N      0.995510000000     0.318050000000     0.493370000000    -0.10864    
N63      N      0.990960000000     0.185030000000     0.503170000000    -0.111924   
N64      N      0.994590000000     0.119560000000     0.499930000000    -0.155294   
N65      N      0.871820000000     0.013030000000     0.501470000000    -0.14531    
N66      N      0.805770000000     0.017130000000     0.500170000000    -0.107848   
N67      N      0.675750000000     0.999140000000     0.476290000000    -0.113565   
N68      N      0.609760000000     0.998280000000     0.478960000000    -0.157717   
N69      N      0.109040000000     0.998820000000     0.491820000000    -0.145      
N70      N      0.174670000000     0.999490000000     0.484710000000    -0.108855   
N71      N      0.306850000000     0.983300000000     0.492750000000    -0.1126     
N72      N      0.372520000000     0.988230000000     0.488730000000    -0.155765   
N73      N      0.009620000000     0.612020000000     0.991880000000    -0.146716   
N74      N      0.012330000000     0.677980000000     0.988860000000    -0.108205   
N75      N      0.990190000000     0.809740000000     0.988930000000    -0.113004   
N76      N      0.989850000000     0.875550000000     0.992330000000    -0.157049   
N77      N      0.983390000000     0.112540000000     0.001780000000    -0.145066   
N78      N      0.977700000000     0.178250000000     0.004160000000    -0.107948   
N79      N      0.975860000000     0.311080000000     0.988250000000    -0.112842   
N80      N      0.982710000000     0.376640000000     0.990500000000    -0.157345   
N81      N      0.608830000000     0.980600000000     0.992000000000    -0.145211   
N82      N      0.674510000000     0.974050000000     0.993940000000    -0.10946    
N83      N      0.805690000000     0.989700000000     0.011270000000    -0.113058   
N84      N      0.871400000000     0.990140000000     0.005740000000    -0.157929   
N85      N      0.109240000000     0.991710000000     0.998830000000    -0.146453   
N86      N      0.175210000000     0.989650000000     0.001290000000    -0.108      
N87      N      0.306470000000     0.006030000000     0.984200000000    -0.112886   
N88      N      0.372300000000     0.001570000000     0.985380000000    -0.156232   
N89      N      0.994270000000     0.996060000000     0.616430000000    -0.146191   
N90      N      0.996280000000     0.990640000000     0.681860000000    -0.108867   
N91      N      0.984830000000     0.992630000000     0.814610000000    -0.112636   
N92      N      0.987930000000     0.998330000000     0.879780000000    -0.15796    
N93      N      0.987460000000     0.998640000000     0.379370000000    -0.146041   
N94      N      0.985170000000     0.992380000000     0.314160000000    -0.108681   
N95      N      0.998940000000     0.989310000000     0.181640000000    -0.112614   
N96      N      0.995810000000     0.992800000000     0.116270000000    -0.157658   
O1       O      0.990190000000     0.994150000000     0.998150000000    -0.369412   
O2       O      0.975730000000     0.975210000000     0.070210000000    -0.305265   
O3       O      0.062730000000     0.013040000000     0.014410000000    -0.300889   
O4       O      0.005890000000     0.923340000000     0.974360000000    -0.299464   
O5       O      0.011650000000     0.012530000000     0.069180000000    -0.297287   
O6       O      0.975980000000     0.921150000000     0.016530000000    -0.302896   
O7       O      0.062160000000     0.974790000000     0.979630000000    -0.296078   
O8       O      0.967710000000     0.012830000000     0.927190000000    -0.302402   
O9       O      0.007880000000     0.066820000000     0.015140000000    -0.293575   
O10      O      0.008980000000     0.981480000000     0.925740000000    -0.304366   
O11      O      0.966610000000     0.065010000000     0.983860000000    -0.302962   
O12      O      0.916330000000     0.009070000000     0.983750000000    -0.304808   
O13      O      0.919850000000     0.972520000000     0.020120000000    -0.304429   
O14      O      0.990220000000     0.001370000000     0.498010000000    -0.36845    
O15      O      0.969970000000     0.018570000000     0.425790000000    -0.297276   
O16      O      0.060970000000     0.979500000000     0.478470000000    -0.302493   
O17      O      0.009760000000     0.071970000000     0.519230000000    -0.297452   
O18      O      0.007700000000     0.983190000000     0.426140000000    -0.300986   
O19      O      0.978180000000     0.073660000000     0.478180000000    -0.299201   
O20      O      0.063650000000     0.017990000000     0.512950000000    -0.291431   
O21      O      0.971580000000     0.983660000000     0.569760000000    -0.302732   
O22      O      0.002740000000     0.929080000000     0.477830000000    -0.297404   
O23      O      0.013090000000     0.014660000000     0.569940000000    -0.295052   
O24      O      0.967310000000     0.930650000000     0.515570000000    -0.300728   
O25      O      0.916890000000     0.988750000000     0.517470000000    -0.301186   
O26      O      0.919780000000     0.026010000000     0.481740000000    -0.293435   
O27      O      0.997900000000     0.494060000000     0.997330000000    -0.368744   
O28      O      0.008610000000     0.421420000000     0.977180000000    -0.299977   
O29      O      0.981370000000     0.474670000000     0.069370000000    -0.299352   
O30      O      0.071770000000     0.509630000000     0.012550000000    -0.294366   
O31      O      0.970230000000     0.424180000000     0.011830000000    -0.300754   
O32      O      0.068250000000     0.467380000000     0.982920000000    -0.294063   
O33      O      0.021290000000     0.507790000000     0.067960000000    -0.297291   
O34      O      0.989190000000     0.565820000000     0.974450000000    -0.297708   
O35      O      0.925090000000     0.484800000000     0.018910000000    -0.305075   
O36      O      0.019630000000     0.565410000000     0.016310000000    -0.300041   
O37      O      0.927510000000     0.522130000000     0.983190000000    -0.303345   
O38      O      0.977610000000     0.509630000000     0.925560000000    -0.299286   
O39      O      0.018170000000     0.477270000000     0.925760000000    -0.294875   
O40      O      0.002410000000     0.501620000000     0.496590000000    -0.368935   
O41      O      0.989000000000     0.429850000000     0.517990000000    -0.298937   
O42      O      0.027650000000     0.487160000000     0.425740000000    -0.299176   
O43      O      0.930610000000     0.515070000000     0.474300000000    -0.302731   
O44      O      0.019490000000     0.430060000000     0.476160000000    -0.293634   
O45      O      0.931340000000     0.476890000000     0.509230000000    -0.297106   
O46      O      0.986920000000     0.519100000000     0.423770000000    -0.302533   
O47      O      0.014380000000     0.574110000000     0.517270000000    -0.30376    
O48      O      0.074960000000     0.481730000000     0.485120000000    -0.297607   
O49      O      0.980750000000     0.572280000000     0.477950000000    -0.30498    
O50      O      0.073310000000     0.523950000000     0.515150000000    -0.301511   
O51      O      0.019490000000     0.519260000000     0.568890000000    -0.302011   
O52      O      0.979350000000     0.486510000000     0.568260000000    -0.302549   
O53      O      0.490630000000     0.991920000000     0.987010000000    -0.368443   
O54      O      0.417750000000     0.979170000000     0.968410000000    -0.303292   
O55      O      0.473150000000     0.010460000000     0.059250000000    -0.300134   
O56      O      0.503970000000     0.917920000000     0.999670000000    -0.293819   
O57      O      0.420160000000     0.015990000000     0.004700000000    -0.295346   
O58      O      0.469090000000     0.922290000000     0.961750000000    -0.299968   
O59      O      0.500660000000     0.966520000000     0.058300000000    -0.296934   
O60      O      0.564690000000     0.003280000000     0.972140000000    -0.297011   
O61      O      0.478230000000     0.065270000000     0.005680000000    -0.295469   
O62      O      0.559790000000     0.967520000000     0.009210000000    -0.296572   
O63      O      0.516020000000     0.062340000000     0.970460000000    -0.3011     
O64      O      0.513660000000     0.009830000000     0.916260000000    -0.2976     
O65      O      0.469820000000     0.982330000000     0.914400000000    -0.302825   
O66      O      0.491200000000     0.995720000000     0.486990000000    -0.368263   
O67      O      0.418580000000     0.009530000000     0.505370000000    -0.299268   
O68      O      0.476460000000     0.970150000000     0.416550000000    -0.302046   
O69      O      0.503970000000     0.068710000000     0.466810000000    -0.302228   
O70      O      0.419940000000     0.972890000000     0.468890000000    -0.296715   
O71      O      0.468600000000     0.066680000000     0.504540000000    -0.296554   
O72      O      0.505310000000     0.013190000000     0.414100000000    -0.301463   
O73      O      0.564570000000     0.980480000000     0.501160000000    -0.30354    
O74      O      0.475280000000     0.921750000000     0.475590000000    -0.296408   
O75      O      0.561590000000     0.017330000000     0.464940000000    -0.301601   
O76      O      0.512310000000     0.926320000000     0.511380000000    -0.298314   
O77      O      0.515110000000     0.984690000000     0.558970000000    -0.296025   
O78      O      0.471610000000     0.012770000000     0.558670000000    -0.302223   
O79      O      0.498500000000     0.491950000000     0.993210000000    -0.366174   
O80      O      0.425270000000     0.501780000000     0.973730000000    -0.301005   
O81      O      0.489810000000     0.418530000000     0.014130000000    -0.302342   
O82      O      0.523580000000     0.475240000000     0.922650000000    -0.300537   
O83      O      0.428580000000     0.463490000000     0.008380000000    -0.301116   
O84      O      0.479160000000     0.501920000000     0.920440000000    -0.298025   
O85      O      0.526120000000     0.421670000000     0.977500000000    -0.297021   
O86      O      0.566910000000     0.519960000000     0.014610000000    -0.299455   
O87      O      0.479310000000     0.474010000000     0.064770000000    -0.302669   
O88      O      0.572970000000     0.480580000000     0.981500000000    -0.298077   
O89      O      0.508150000000     0.517110000000     0.064550000000    -0.301558   
O90      O      0.506900000000     0.567020000000     0.007600000000    -0.303806   
O91      O      0.472840000000     0.560670000000     0.969270000000    -0.303109   
O92      O      0.503300000000     0.496020000000     0.493280000000    -0.367448   
O93      O      0.432110000000     0.520050000000     0.477600000000    -0.303367   
O94      O      0.483380000000     0.425260000000     0.516270000000    -0.303158   
O95      O      0.515030000000     0.473780000000     0.420930000000    -0.294381   
O96      O      0.430720000000     0.480600000000     0.511140000000    -0.304528   
O97      O      0.485460000000     0.516360000000     0.422200000000    -0.303137   
O98      O      0.517800000000     0.422220000000     0.477830000000    -0.302915   
O99      O      0.576930000000     0.511870000000     0.505340000000    -0.304412   
O100     O      0.483520000000     0.483730000000     0.565510000000    -0.303605   
O101     O      0.572770000000     0.473670000000     0.470640000000    -0.298784   
O102     O      0.527300000000     0.511530000000     0.564480000000    -0.302744   
O103     O      0.526380000000     0.567010000000     0.512070000000    -0.303297   
O104     O      0.489860000000     0.569360000000     0.475600000000    -0.304893   
O105     O      0.463940000000     0.435080000000     0.842680000000    -0.336047   
O106     O      0.427780000000     0.460100000000     0.870610000000    -0.244238   
O107     O      0.562010000000     0.502780000000     0.345500000000    -0.336009   
O108     O      0.567400000000     0.454710000000     0.364920000000    -0.244458   
O109     O      0.438720000000     0.844480000000     0.531030000000    -0.336203   
O110     O      0.416050000000     0.870790000000     0.492250000000    -0.24374    
O111     O      0.424050000000     0.146910000000     0.461000000000    -0.336298   
O112     O      0.405650000000     0.115430000000     0.498170000000    -0.243338   
O113     O      0.543600000000     0.843000000000     0.945960000000    -0.335826   
O114     O      0.564460000000     0.867430000000     0.986920000000    -0.241465   
O115     O      0.445710000000     0.142580000000     0.956450000000    -0.335799   
O116     O      0.421530000000     0.121150000000     0.997260000000    -0.244438   
O117     O      0.488560000000     0.935970000000     0.632750000000    -0.335087   
O118     O      0.537100000000     0.932290000000     0.614170000000    -0.244741   
O119     O      0.433730000000     0.943220000000     0.133510000000    -0.335925   
O120     O      0.460800000000     0.909980000000     0.103920000000    -0.243569   
O121     O      0.863080000000     0.438410000000     0.443640000000    -0.334596   
O122     O      0.891110000000     0.412400000000     0.478980000000    -0.240118   
O123     O      0.148770000000     0.458910000000     0.550820000000    -0.335458   
O124     O      0.124430000000     0.424900000000     0.519760000000    -0.243799   
O125     O      0.646150000000     0.459480000000     0.048360000000    -0.33552    
O126     O      0.625210000000     0.425750000000     0.014650000000    -0.245491   
O127     O      0.140930000000     0.439460000000     0.048620000000    -0.330707   
O128     O      0.112620000000     0.406530000000     0.019850000000    -0.241588   
O129     O      0.046260000000     0.540160000000     0.858430000000    -0.330055   
O130     O      0.078870000000     0.503320000000     0.875670000000    -0.242521   
O131     O      0.053510000000     0.442440000000     0.144760000000    -0.334731   
O132     O      0.081480000000     0.469440000000     0.110120000000    -0.239116   
O133     O      0.938700000000     0.853840000000     0.445820000000    -0.33518    
O134     O      0.971370000000     0.882580000000     0.417180000000    -0.240753   
O135     O      0.955940000000     0.362300000000     0.451690000000    -0.328082   
O136     O      0.991180000000     0.378690000000     0.417010000000    -0.242902   
O137     O      0.839040000000     0.070640000000     0.528320000000    -0.336683   
O138     O      0.873670000000     0.090110000000     0.494670000000    -0.242328   
O139     O      0.137160000000     0.053790000000     0.459830000000    -0.335775   
O140     O      0.116430000000     0.077120000000     0.501480000000    -0.242298   
O141     O      0.057260000000     0.643830000000     0.948880000000    -0.335568   
O142     O      0.032340000000     0.609750000000     0.918390000000    -0.240313   
O143     O      0.975200000000     0.142600000000     0.064060000000    -0.336348   
O144     O      0.022280000000     0.121100000000     0.070110000000    -0.242982   
O145     O      0.640310000000     0.948380000000     0.938620000000    -0.333922   
O146     O      0.618590000000     0.989040000000     0.914330000000    -0.244141   
O147     O      0.139640000000     0.935660000000     0.028110000000    -0.335412   
O148     O      0.112830000000     0.913700000000     0.989260000000    -0.243752   
O149     O      0.040460000000     0.951210000000     0.642870000000    -0.335202   
O150     O      0.072440000000     0.984670000000     0.618940000000    -0.243737   
O151     O      0.938300000000     0.956790000000     0.355140000000    -0.330787   
O152     O      0.908090000000     0.993990000000     0.375640000000    -0.24355    
Zn1      Zn     0.966290000000     0.966460000000     0.025370000000     0.453925   
Zn2      Zn     0.017330000000     0.021180000000     0.023160000000     0.455433   
Zn3      Zn     0.016180000000     0.969250000000     0.970310000000     0.453865   
Zn4      Zn     0.961080000000     0.019350000000     0.973620000000     0.450416   
Zn5      Zn     0.965510000000     0.028960000000     0.471450000000     0.459279   
Zn6      Zn     0.014880000000     0.974010000000     0.471340000000     0.458692   
Zn7      Zn     0.018420000000     0.025790000000     0.524420000000     0.455246   
Zn8      Zn     0.962160000000     0.976800000000     0.524340000000     0.453241   
Zn9      Zn     0.022660000000     0.465930000000     0.971510000000     0.457384   
Zn10     Zn     0.969460000000     0.469990000000     0.023730000000     0.45145    
Zn11     Zn     0.026480000000     0.518990000000     0.022690000000     0.455898   
Zn12     Zn     0.973350000000     0.521670000000     0.970810000000     0.452726   
Zn13     Zn     0.976430000000     0.474820000000     0.522670000000     0.456123   
Zn14     Zn     0.030260000000     0.475800000000     0.471500000000     0.456105   
Zn15     Zn     0.975970000000     0.526350000000     0.468950000000     0.453615   
Zn16     Zn     0.027030000000     0.529020000000     0.523390000000     0.450736   
Zn17     Zn     0.462610000000     0.969260000000     0.958950000000     0.453161   
Zn18     Zn     0.466490000000     0.020250000000     0.013560000000     0.453486   
Zn19     Zn     0.513000000000     0.962010000000     0.013100000000     0.457189   
Zn20     Zn     0.520590000000     0.015970000000     0.962340000000     0.455436   
Zn21     Zn     0.463440000000     0.020570000000     0.513110000000     0.456901   
Zn22     Zn     0.466440000000     0.966110000000     0.462430000000     0.452968   
Zn23     Zn     0.514790000000     0.023320000000     0.459190000000     0.448623   
Zn24     Zn     0.520130000000     0.972770000000     0.513770000000     0.455765   
Zn25     Zn     0.469900000000     0.513600000000     0.965030000000     0.452446   
Zn26     Zn     0.474730000000     0.462780000000     0.019280000000     0.451733   
Zn27     Zn     0.529330000000     0.468230000000     0.969100000000     0.45192    
Zn28     Zn     0.519720000000     0.523160000000     0.019150000000     0.449211   
Zn29     Zn     0.478230000000     0.524520000000     0.467940000000     0.451239   
Zn30     Zn     0.475950000000     0.471890000000     0.520550000000     0.449756   
Zn31     Zn     0.526210000000     0.467040000000     0.466360000000     0.453219   
Zn32     Zn     0.532630000000     0.520550000000     0.518390000000     0.450047   


