data_structure

_audit_creation_method RASPA-1.0
_audit_creation_date 2023-5-25
_audit_author_name 'Poobodin Mano'

_cell_length_a    42.7641
_cell_length_b    42.7206
_cell_length_c    42.8008
_cell_angle_alpha 90
_cell_angle_beta  90
_cell_angle_gamma 90
_cell_volume      78193.1

_symmetry_cell_setting          triclinic
_symmetry_space_group_name_Hall 'P 1'
_symmetry_space_group_name_H-M  'P 1'
_symmetry_Int_Tables_number     1

_symmetry_equiv_pos_as_xyz 'x,y,z'

loop_
_atom_site_label
_atom_site_type_symbol
_atom_site_fract_x
_atom_site_fract_y
_atom_site_fract_z
_atom_site_charge
C1       C      0.996470000000     0.992980000000     0.082520000000     0.357696   
C2       C      0.077260000000     0.999680000000     0.987610000000     0.360997   
C3       C      0.992040000000     0.910240000000     0.998330000000     0.359461   
C4       C      0.984850000000     0.995750000000     0.910070000000     0.360021   
C5       C      0.988530000000     0.082460000000     0.000780000000     0.360336   
C6       C      0.902510000000     0.995190000000     0.998070000000     0.361578   
C7       C      0.002770000000     0.996760000000     0.410000000000     0.359193   
C8       C      0.085640000000     0.989630000000     0.503210000000     0.360754   
C9       C      0.004620000000     0.082640000000     0.492640000000     0.362749   
C10      C      0.993520000000     0.999320000000     0.582590000000     0.358083   
C11      C      0.992430000000     0.909960000000     0.494290000000     0.360169   
C12      C      0.911130000000     0.001820000000     0.495440000000     0.3649     
C13      C      0.998220000000     0.409840000000     0.993310000000     0.363039   
C14      C      0.990450000000     0.500580000000     0.081700000000     0.358329   
C15      C      0.082000000000     0.500450000000     0.001100000000     0.362524   
C16      C      0.992510000000     0.583120000000     0.989310000000     0.363862   
C17      C      0.908580000000     0.490450000000     0.994010000000     0.362851   
C18      C      0.998940000000     0.496780000000     0.909540000000     0.356939   
C19      C      0.999860000000     0.410710000000     0.496960000000     0.357046   
C20      C      0.997030000000     0.500980000000     0.409250000000     0.357509   
C21      C      0.909100000000     0.492580000000     0.491300000000     0.3624     
C22      C      0.989840000000     0.582600000000     0.504550000000     0.358543   
C23      C      0.082410000000     0.502000000000     0.490990000000     0.36245    
C24      C      0.998260000000     0.491830000000     0.582280000000     0.360249   
C25      C      0.403450000000     0.990420000000     0.991160000000     0.35941    
C26      C      0.485070000000     0.995720000000     0.079970000000     0.362831   
C27      C      0.493480000000     0.908580000000     0.995420000000     0.361915   
C28      C      0.575730000000     0.003530000000     0.000980000000     0.359905   
C29      C      0.481930000000     0.082860000000     0.989830000000     0.362151   
C30      C      0.496870000000     0.991980000000     0.907340000000     0.359228   
C31      C      0.411640000000     0.000480000000     0.491220000000     0.36082    
C32      C      0.497250000000     0.995820000000     0.406850000000     0.361266   
C33      C      0.505220000000     0.081580000000     0.497590000000     0.362541   
C34      C      0.584550000000     0.990240000000     0.490610000000     0.358538   
C35      C      0.495710000000     0.907310000000     0.491320000000     0.3619     
C36      C      0.496100000000     0.990750000000     0.579880000000     0.360311   
C37      C      0.409140000000     0.503300000000     0.994220000000     0.361087   
C38      C      0.491930000000     0.408870000000     0.002300000000     0.361387   
C39      C      0.490290000000     0.488150000000     0.907380000000     0.361302   
C40      C      0.581540000000     0.487920000000     0.992430000000     0.363104   
C41      C      0.493110000000     0.503700000000     0.079370000000     0.361407   
C42      C      0.505640000000     0.582170000000     0.986740000000     0.360589   
C43      C      0.408940000000     0.487160000000     0.495210000000     0.36372    
C44      C      0.498990000000     0.408180000000     0.487570000000     0.359764   
C45      C      0.493990000000     0.498070000000     0.406750000000     0.362174   
C46      C      0.581840000000     0.502600000000     0.491420000000     0.360642   
C47      C      0.500130000000     0.488110000000     0.580630000000     0.36129    
C48      C      0.486130000000     0.580470000000     0.499070000000     0.35938    
C49      C      0.507310000000     0.459050000000     0.827440000000    -0.0313521  
C50      C      0.505870000000     0.510880000000     0.664030000000    -0.0290495  
C51      C      0.496320000000     0.454240000000     0.627180000000    -0.0105635  
C52      C      0.519250000000     0.509010000000     0.630880000000    -0.00970796 
C53      C      0.525720000000     0.481360000000     0.731460000000    -0.0539721  
C54      C      0.465420000000     0.480490000000     0.756510000000    -0.0536064  
C55      C      0.499930000000     0.480380000000     0.711270000000     0.0613832  
C56      C      0.484560000000     0.458370000000     0.660640000000    -0.0286365  
C57      C      0.491230000000     0.480240000000     0.776690000000     0.0602908  
C58      C      0.483930000000     0.510660000000     0.823920000000    -0.0587521  
C59      C      0.521530000000     0.481900000000     0.763850000000    -0.0555348  
C60      C      0.470200000000     0.508390000000     0.857110000000     0.0815064  
C61      C      0.495500000000     0.454380000000     0.860830000000    -0.00813428 
C62      C      0.469600000000     0.481160000000     0.724130000000    -0.0563518  
C63      C      0.435120000000     0.500720000000     0.856050000000    -0.185471   
C64      C      0.518770000000     0.511700000000     0.161740000000    -0.0315597  
C65      C      0.469000000000     0.519670000000     0.325810000000    -0.0286476  
C66      C      0.516810000000     0.481830000000     0.356520000000    -0.00951789 
C67      C      0.463380000000     0.508520000000     0.359260000000    -0.0103893  
C68      C      0.490240000000     0.475200000000     0.256340000000    -0.0540424  
C69      C      0.491060000000     0.534760000000     0.229450000000    -0.0537941  
C70      C      0.490140000000     0.501640000000     0.275710000000     0.0614099  
C71      C      0.519920000000     0.495120000000     0.323460000000    -0.028869   
C72      C      0.489720000000     0.508330000000     0.210110000000     0.0602118  
C73      C      0.465660000000     0.491820000000     0.160920000000    -0.0581428  
C74      C      0.490650000000     0.478380000000     0.223860000000    -0.055488   
C75      C      0.460520000000     0.502340000000     0.126990000000     0.0793049  
C76      C      0.516220000000     0.523890000000     0.128190000000    -0.00723779 
C77      C      0.491880000000     0.531560000000     0.261940000000    -0.0563112  
C78      C      0.440250000000     0.531990000000     0.125660000000    -0.183869   
C79      C      0.467350000000     0.826020000000     0.476560000000    -0.0312502  
C80      C      0.505960000000     0.663140000000     0.516090000000    -0.0286819  
C81      C      0.456280000000     0.628100000000     0.485230000000    -0.010348   
C82      C      0.498720000000     0.629710000000     0.526620000000    -0.0104333  
C83      C      0.465110000000     0.732570000000     0.517430000000    -0.0543095  
C84      C      0.506820000000     0.754820000000     0.472280000000    -0.0537333  
C85      C      0.481740000000     0.711220000000     0.498950000000     0.0614631  
C86      C      0.465260000000     0.661700000000     0.476590000000    -0.0288235  
C87      C      0.490260000000     0.776150000000     0.490810000000     0.0603585  
C88      C      0.509860000000     0.824100000000     0.513850000000    -0.0583151  
C89      C      0.469290000000     0.764790000000     0.513500000000    -0.0558557  
C90      C      0.521030000000     0.857270000000     0.505450000000     0.0804892  
C91      C      0.475890000000     0.859240000000     0.466260000000    -0.00814525 
C92      C      0.502700000000     0.722610000000     0.476250000000    -0.0566693  
C93      C      0.550420000000     0.856000000000     0.484850000000    -0.184723   
C94      C      0.485330000000     0.164750000000     0.512830000000    -0.0313988  
C95      C      0.526680000000     0.327120000000     0.470790000000    -0.0289538  
C96      C      0.473140000000     0.358060000000     0.499540000000    -0.0100515  
C97      C      0.518300000000     0.360590000000     0.460930000000    -0.0103113  
C98      C      0.486280000000     0.255820000000     0.467330000000    -0.0541886  
C99      C      0.527740000000     0.233760000000     0.512790000000    -0.0538895  
C100     C      0.503550000000     0.277230000000     0.485110000000     0.0614208  
C101     C      0.483880000000     0.325030000000     0.507870000000    -0.0286925  
C102     C      0.510310000000     0.212370000000     0.495140000000     0.0604103  
C103     C      0.526340000000     0.162420000000     0.473750000000    -0.0582795  
C104     C      0.489550000000     0.223650000000     0.472220000000    -0.0559139  
C105     C      0.535300000000     0.128800000000     0.482910000000     0.0802839  
C106     C      0.492110000000     0.131380000000     0.523960000000    -0.00791148 
C107     C      0.524420000000     0.265950000000     0.507950000000    -0.0566819  
C108     C      0.565220000000     0.128400000000     0.502730000000    -0.184574   
C109     C      0.522270000000     0.827530000000     0.010650000000    -0.0310187  
C110     C      0.486410000000     0.664540000000     0.968630000000    -0.0287437  
C111     C      0.535500000000     0.629780000000     0.000710000000    -0.0101895  
C112     C      0.494250000000     0.631200000000     0.958220000000    -0.0105544  
C113     C      0.526670000000     0.734400000000     0.969110000000    -0.0542313  
C114     C      0.483400000000     0.755850000000     0.013160000000    -0.0538052  
C115     C      0.509640000000     0.712740000000     0.986840000000     0.061049   
C116     C      0.526020000000     0.663250000000     0.009290000000    -0.0286455  
C117     C      0.500360000000     0.777510000000     0.995370000000     0.0601087  
C118     C      0.480900000000     0.825360000000     0.972100000000    -0.0581425  
C119     C      0.522120000000     0.766550000000     0.973240000000    -0.0559931  
C120     C      0.469120000000     0.858350000000     0.980360000000     0.0798271  
C121     C      0.513070000000     0.860610000000     0.020850000000    -0.00775598 
C122     C      0.487900000000     0.723730000000     0.009000000000    -0.0565883  
C123     C      0.439180000000     0.856630000000     0.000120000000    -0.183556   
C124     C      0.502510000000     0.166090000000     0.976280000000    -0.0313873  
C125     C      0.464210000000     0.328530000000     0.021010000000    -0.0289254  
C126     C      0.517690000000     0.358450000000     0.991150000000    -0.0105369  
C127     C      0.473560000000     0.361820000000     0.030690000000    -0.0103315  
C128     C      0.502700000000     0.256200000000     0.023180000000    -0.054404   
C129     C      0.460630000000     0.235570000000     0.977590000000    -0.0536586  
C130     C      0.485780000000     0.278190000000     0.005750000000     0.0616854  
C131     C      0.506180000000     0.325660000000     0.982950000000    -0.0287748  
C132     C      0.477850000000     0.213600000000     0.994740000000     0.0599865  
C133     C      0.460980000000     0.163350000000     0.014800000000    -0.0581686  
C134     C      0.498810000000     0.224160000000     0.017830000000    -0.0554447  
C135     C      0.451810000000     0.130010000000     0.004780000000     0.0806122  
C136     C      0.495530000000     0.133030000000     0.964360000000    -0.00801473 
C137     C      0.464500000000     0.267620000000     0.982950000000    -0.0570392  
C138     C      0.422190000000     0.130350000000     0.984510000000    -0.184888   
C139     C      0.488790000000     0.015070000000     0.662990000000    -0.0311476  
C140     C      0.483000000000     0.964370000000     0.826280000000    -0.0286854  
C141     C      0.518510000000     0.013090000000     0.858220000000    -0.00928318 
C142     C      0.493280000000     0.959230000000     0.860060000000    -0.0106744  
C143     C      0.528000000000     0.986760000000     0.757600000000    -0.0542347  
C144     C      0.468840000000     0.986610000000     0.729970000000    -0.0538279  
C145     C      0.501350000000     0.986230000000     0.776650000000     0.0612706  
C146     C      0.506540000000     0.016020000000     0.824600000000    -0.0286667  
C147     C      0.495480000000     0.985760000000     0.710920000000     0.0600546  
C148     C      0.514450000000     0.964580000000     0.660990000000    -0.0582111  
C149     C      0.525220000000     0.987150000000     0.725060000000    -0.0554241  
C150     C      0.503860000000     0.958600000000     0.627190000000     0.0795951  
C151     C      0.476130000000     0.011610000000     0.629710000000    -0.00697802 
C152     C      0.471620000000     0.987510000000     0.762490000000    -0.0563159  
C153     C      0.477030000000     0.934720000000     0.626250000000    -0.184502   
C154     C      0.478710000000     0.023280000000     0.161890000000    -0.0313291  
C155     C      0.476930000000     0.972330000000     0.325610000000    -0.0284526  
C156     C      0.513900000000     0.020100000000     0.357390000000    -0.00920331 
C157     C      0.488920000000     0.965860000000     0.358540000000    -0.0107484  
C158     C      0.519220000000     0.997070000000     0.256140000000    -0.0543333  
C159     C      0.459120000000     0.995960000000     0.230600000000    -0.0541021  
C160     C      0.493250000000     0.995770000000     0.276050000000     0.0614104  
C161     C      0.500060000000     0.024110000000     0.324650000000    -0.0285777  
C162     C      0.485120000000     0.995460000000     0.210710000000     0.0602156  
C163     C      0.501830000000     0.971430000000     0.161590000000    -0.0581307  
C164     C      0.515300000000     0.997570000000     0.223760000000    -0.0555809  
C165     C      0.490500000000     0.964730000000     0.128250000000     0.0792557  
C166     C      0.465590000000     0.019130000000     0.128870000000    -0.00641325 
C167     C      0.463010000000     0.996760000000     0.262990000000    -0.0565431  
C168     C      0.462200000000     0.942590000000     0.128500000000    -0.183575   
C169     C      0.828520000000     0.511540000000     0.465220000000    -0.0312687  
C170     C      0.664230000000     0.511020000000     0.517010000000    -0.0291717  
C171     C      0.629640000000     0.499170000000     0.459480000000    -0.0105979  
C172     C      0.630890000000     0.523810000000     0.513450000000    -0.00958605 
C173     C      0.732830000000     0.530020000000     0.487960000000    -0.0541123  
C174     C      0.757910000000     0.469680000000     0.489540000000    -0.0534218  
C175     C      0.712650000000     0.504190000000     0.488310000000     0.0615045  
C176     C      0.662950000000     0.487770000000     0.465250000000    -0.0285722  
C177     C      0.778110000000     0.495450000000     0.487600000000     0.0601393  
C178     C      0.826300000000     0.487150000000     0.516340000000    -0.0586988  
C179     C      0.765260000000     0.525850000000     0.488230000000    -0.0552296  
C180     C      0.859140000000     0.472840000000     0.512670000000     0.0815164  
C181     C      0.861570000000     0.499270000000     0.459200000000    -0.00814313 
C182     C      0.725530000000     0.473900000000     0.490550000000    -0.0564511  
C183     C      0.857150000000     0.437920000000     0.504320000000    -0.185329   
C184     C      0.327840000000     0.501890000000     0.469400000000    -0.0310866  
C185     C      0.164280000000     0.507300000000     0.517570000000    -0.0289143  
C186     C      0.130450000000     0.495720000000     0.459500000000    -0.0105225  
C187     C      0.131990000000     0.521960000000     0.512720000000    -0.00975418 
C188     C      0.233780000000     0.523240000000     0.492860000000    -0.0539331  
C189     C      0.257410000000     0.462280000000     0.492780000000    -0.0538007  
C190     C      0.213060000000     0.497930000000     0.490540000000     0.061346   
C191     C      0.163130000000     0.482910000000     0.466340000000    -0.0287092  
C192     C      0.278170000000     0.487640000000     0.493340000000     0.0605395  
C193     C      0.326670000000     0.481430000000     0.522320000000    -0.0587576  
C194     C      0.266000000000     0.518250000000     0.494890000000    -0.0557589  
C195     C      0.359960000000     0.467780000000     0.519320000000     0.0818518  
C196     C      0.360790000000     0.489570000000     0.463830000000    -0.00788221 
C197     C      0.225110000000     0.467240000000     0.492010000000    -0.0562044  
C198     C      0.358860000000     0.432260000000     0.513810000000    -0.18593    
C199     C      0.665750000000     0.508380000000     0.000160000000    -0.0310817  
C200     C      0.828490000000     0.460760000000     0.012090000000    -0.0286753  
C201     C      0.858080000000     0.508560000000     0.973380000000    -0.00925881 
C202     C      0.862800000000     0.456890000000     0.003020000000    -0.0100309  
C203     C      0.760140000000     0.477730000000     0.963190000000    -0.0540945  
C204     C      0.730230000000     0.477870000000     0.021160000000    -0.053689   
C205     C      0.778150000000     0.477940000000     0.990560000000     0.0612363  
C206     C      0.824250000000     0.510190000000     0.984780000000    -0.0293029  
C207     C      0.712220000000     0.477010000000     0.993810000000     0.0601885  
C208     C      0.661790000000     0.459260000000     0.972370000000    -0.0580721  
C209     C      0.727520000000     0.477930000000     0.964660000000    -0.0553838  
C210     C      0.627440000000     0.454550000000     0.981940000000     0.0796218  
C211     C      0.632250000000     0.506110000000     0.012260000000    -0.00690867 
C212     C      0.762810000000     0.479050000000     0.019680000000    -0.0560518  
C213     C      0.624670000000     0.429090000000     0.007140000000    -0.184252   
C214     C      0.324990000000     0.482560000000     0.002970000000    -0.0311256  
C215     C      0.162470000000     0.529050000000     0.022050000000    -0.0284361  
C216     C      0.133010000000     0.480590000000     0.983940000000    -0.00937812 
C217     C      0.127870000000     0.532480000000     0.013760000000    -0.0102108  
C218     C      0.229740000000     0.514140000000     0.971310000000    -0.0540091  
C219     C      0.261350000000     0.512660000000     0.028350000000    -0.0540762  
C220     C      0.212540000000     0.512910000000     0.999170000000     0.0610569  
C221     C      0.166960000000     0.479700000000     0.994990000000    -0.0290749  
C222     C      0.278540000000     0.514430000000     0.000510000000     0.0605357  
C223     C      0.328320000000     0.533590000000     0.978810000000    -0.0581333  
C224     C      0.262400000000     0.514270000000     0.971820000000    -0.0559052  
C225     C      0.363030000000     0.537430000000     0.987520000000     0.0791135  
C226     C      0.358910000000     0.483720000000     0.013970000000    -0.00728999 
C227     C      0.228740000000     0.511240000000     0.027790000000    -0.0559789  
C228     C      0.366790000000     0.560920000000     0.014450000000    -0.183735   
C229     C      0.973710000000     0.484100000000     0.665210000000    -0.0321937  
C230     C      0.026590000000     0.479780000000     0.828590000000    -0.0285464  
C231     C      0.975770000000     0.513220000000     0.859500000000    -0.0104398  
C232     C      0.031150000000     0.491160000000     0.862150000000    -0.0107817  
C233     C      0.001760000000     0.522170000000     0.759160000000    -0.0546553  
C234     C      0.004030000000     0.462520000000     0.732510000000    -0.0536432  
C235     C      0.003730000000     0.495870000000     0.778620000000     0.0617869  
C236     C      0.973710000000     0.499960000000     0.826370000000    -0.029587   
C237     C      0.003410000000     0.488900000000     0.713060000000     0.0600656  
C238     C      0.025840000000     0.506300000000     0.663480000000    -0.0582195  
C239     C      0.001000000000     0.518810000000     0.726700000000    -0.0539799  
C240     C      0.031010000000     0.495750000000     0.629580000000     0.0798993  
C241     C      0.976240000000     0.471870000000     0.631670000000    -0.00790473 
C242     C      0.003590000000     0.465830000000     0.765000000000    -0.056403   
C243     C      0.052630000000     0.467070000000     0.628230000000    -0.184495   
C244     C      0.005140000000     0.528980000000     0.162610000000    -0.0291134  
C245     C      0.000450000000     0.476400000000     0.325800000000    -0.0277329  
C246     C      0.992420000000     0.533720000000     0.362030000000    -0.0120312  
C247     C      0.013530000000     0.478000000000     0.359060000000    -0.00944181 
C248     C      0.022740000000     0.505500000000     0.258490000000    -0.0525997  
C249     C      0.962880000000     0.506450000000     0.232400000000    -0.0536819  
C250     C      0.996610000000     0.506690000000     0.278230000000     0.0593368  
C251     C      0.981060000000     0.529600000000     0.328390000000    -0.0291526  
C252     C      0.989040000000     0.506500000000     0.212670000000     0.0591034  
C253     C      0.984440000000     0.476220000000     0.164970000000    -0.0599075  
C254     C      0.019110000000     0.504840000000     0.226040000000    -0.0547128  
C255     C      0.971380000000     0.478140000000     0.131470000000     0.08156    
C256     C      0.993950000000     0.533470000000     0.128980000000    -0.0109625  
C257     C      0.966500000000     0.505990000000     0.264860000000    -0.0559654  
C258     C      0.935900000000     0.483750000000     0.131840000000    -0.185572   
C259     C      0.964870000000     0.830030000000     0.514700000000    -0.0312903  
C260     C      0.013050000000     0.665280000000     0.513880000000    -0.0284844  
C261     C      0.956290000000     0.629570000000     0.501340000000    -0.0107287  
C262     C      0.009700000000     0.632060000000     0.526970000000    -0.00906132 
C263     C      0.985000000000     0.733470000000     0.532100000000    -0.0540936  
C264     C      0.985220000000     0.758710000000     0.471920000000    -0.0535476  
C265     C      0.983970000000     0.713310000000     0.506280000000     0.0612508  
C266     C      0.961640000000     0.663010000000     0.489840000000    -0.0287046  
C267     C      0.984890000000     0.778900000000     0.497730000000     0.0600493  
C268     C      0.015030000000     0.826180000000     0.488590000000    -0.0579411  
C269     C      0.986090000000     0.765920000000     0.528000000000    -0.0554379  
C270     C      0.011980000000     0.859210000000     0.474480000000     0.0818968  
C271     C      0.959500000000     0.863300000000     0.502730000000    -0.00832369 
C272     C      0.985420000000     0.726250000000     0.476020000000    -0.0564158  
C273     C      0.002480000000     0.857530000000     0.439900000000    -0.184232   
C274     C      0.030480000000     0.163610000000     0.511600000000    -0.0312554  
C275     C      0.977580000000     0.326750000000     0.503790000000    -0.029898   
C276     C      0.033190000000     0.364130000000     0.490820000000    -0.0107027  
C277     C      0.979460000000     0.360310000000     0.516250000000    -0.0101573  
C278     C      0.007830000000     0.260470000000     0.524830000000    -0.0540514  
C279     C      0.009800000000     0.233040000000     0.465650000000    -0.0535235  
C280     C      0.008630000000     0.279680000000     0.498290000000     0.0614483  
C281     C      0.028940000000     0.330270000000     0.480180000000    -0.0285259  
C282     C      0.010210000000     0.213840000000     0.492210000000     0.060332   
C283     C      0.981130000000     0.165850000000     0.483850000000    -0.0596623  
C284     C      0.007970000000     0.227880000000     0.521940000000    -0.0553966  
C285     C      0.985100000000     0.132500000000     0.470840000000     0.0813792  
C286     C      0.036650000000     0.129990000000     0.500980000000    -0.00814917 
C287     C      0.008360000000     0.265590000000     0.468510000000    -0.0563889  
C288     C      0.995710000000     0.133300000000     0.436550000000    -0.186824   
C289     C      0.828800000000     0.979870000000     0.512270000000    -0.0313277  
C290     C      0.666040000000     0.013000000000     0.471040000000    -0.0283739  
C291     C      0.633800000000     0.964760000000     0.506960000000    -0.0104176  
C292     C      0.632770000000     0.003650000000     0.461990000000    -0.00944906 
C293     C      0.736620000000     0.974020000000     0.470890000000    -0.0536569  
C294     C      0.758950000000     0.020030000000     0.511660000000    -0.0546396  
C295     C      0.715380000000     0.991780000000     0.488400000000     0.0602205  
C296     C      0.667220000000     0.975720000000     0.513740000000    -0.0289617  
C297     C      0.780190000000     0.002150000000     0.494290000000     0.061575   
C298     C      0.829190000000     0.017750000000     0.470130000000    -0.057475   
C299     C      0.768780000000     0.979090000000     0.473730000000    -0.0571731  
C300     C      0.862760000000     0.028380000000     0.477820000000     0.0803977  
C301     C      0.861930000000     0.988530000000     0.522320000000    -0.00905251 
C302     C      0.726790000000     0.015000000000     0.508780000000    -0.055488   
C303     C      0.862580000000     0.060050000000     0.494810000000    -0.184904   
C304     C      0.330220000000     0.017290000000     0.516530000000    -0.0304934  
C305     C      0.167600000000     0.972290000000     0.481380000000    -0.0289397  
C306     C      0.133960000000     0.003290000000     0.531890000000    -0.00916171 
C307     C      0.134460000000     0.961600000000     0.489750000000    -0.0102992  
C308     C      0.238260000000     0.973240000000     0.521140000000    -0.0535756  
C309     C      0.258740000000     0.017540000000     0.477610000000    -0.0544061  
C310     C      0.216230000000     0.990400000000     0.504000000000     0.0602553  
C311     C      0.167060000000     0.012290000000     0.521700000000    -0.0286577  
C312     C      0.280770000000     0.000330000000     0.494680000000     0.0614544  
C313     C      0.329160000000     0.977740000000     0.475910000000    -0.0583003  
C314     C      0.270270000000     0.978070000000     0.516580000000    -0.0570288  
C315     C      0.362270000000     0.986170000000     0.464670000000     0.0789223  
C316     C      0.363270000000     0.027720000000     0.507510000000    -0.00831781 
C317     C      0.226720000000     0.012710000000     0.482160000000    -0.0554907  
C318     C      0.361040000000     0.005690000000     0.434560000000    -0.183086   
C319     C      0.016350000000     0.664850000000     0.004350000000    -0.0300016  
C320     C      0.965110000000     0.828010000000     0.003970000000    -0.0288899  
C321     C      0.022760000000     0.862090000000     0.990740000000    -0.0102783  
C322     C      0.969700000000     0.860750000000     0.017710000000    -0.00955553 
C323     C      0.991340000000     0.759420000000     0.021810000000    -0.0539028  
C324     C      0.991910000000     0.733810000000     0.961760000000    -0.05405    
C325     C      0.992880000000     0.779340000000     0.995860000000     0.0608183  
C326     C      0.015970000000     0.829100000000     0.978890000000    -0.0279792  
C327     C      0.992240000000     0.713900000000     0.987760000000     0.0602682  
C328     C      0.964440000000     0.664800000000     0.981330000000    -0.0590862  
C329     C      0.990340000000     0.727000000000     0.017910000000    -0.0557957  
C330     C      0.968700000000     0.631460000000     0.968240000000     0.0819394  
C331     C      0.023090000000     0.631780000000     0.992880000000    -0.00774842 
C332     C      0.991580000000     0.766260000000     0.965650000000    -0.0563048  
C333     C      0.976010000000     0.632300000000     0.933110000000    -0.185712   
C334     C      0.973380000000     0.328600000000     0.010800000000    -0.0307546  
C335     C      0.017480000000     0.163690000000     0.007740000000    -0.0279625  
C336     C      0.958770000000     0.131520000000     0.994450000000    -0.0109217  
C337     C      0.011840000000     0.131050000000     0.021290000000    -0.00896046 
C338     C      0.994600000000     0.232870000000     0.026210000000    -0.0543091  
C339     C      0.993480000000     0.259240000000     0.966520000000    -0.0536706  
C340     C      0.991400000000     0.213340000000     0.000100000000     0.0617213  
C341     C      0.966500000000     0.164440000000     0.982860000000    -0.0287059  
C342     C      0.994840000000     0.278820000000     0.992720000000     0.0600795  
C343     C      0.024160000000     0.327060000000     0.985580000000    -0.0582416  
C344     C      0.997000000000     0.265260000000     0.022650000000    -0.0553583  
C345     C      0.020430000000     0.360530000000     0.972620000000     0.0823293  
C346     C      0.967160000000     0.361890000000     0.999700000000    -0.00851593 
C347     C      0.992420000000     0.226750000000     0.970010000000    -0.0566672  
C348     C      0.011810000000     0.359800000000     0.937760000000    -0.184496   
C349     C      0.820250000000     0.019500000000     0.982410000000    -0.0314886  
C350     C      0.657250000000     0.982630000000     0.021550000000    -0.0288524  
C351     C      0.624350000000     0.032190000000     0.988150000000    -0.0108582  
C352     C      0.623650000000     0.990800000000     0.030660000000    -0.0116418  
C353     C      0.727370000000     0.022940000000     0.023580000000    -0.055049   
C354     C      0.750340000000     0.979040000000     0.980900000000    -0.0529638  
C355     C      0.706350000000     0.005530000000     0.005450000000     0.0629245  
C356     C      0.658020000000     0.022310000000     0.980970000000    -0.0287093  
C357     C      0.771350000000     0.996480000000     0.998980000000     0.0587874  
C358     C      0.820120000000     0.980050000000     0.023000000000    -0.0582457  
C359     C      0.759620000000     0.018540000000     0.020440000000    -0.0541995  
C360     C      0.853600000000     0.969360000000     0.015110000000     0.0806834  
C361     C      0.853490000000     0.011130000000     0.972290000000    -0.00661172 
C362     C      0.718100000000     0.983440000000     0.984030000000    -0.0583128  
C363     C      0.853160000000     0.938280000000     0.997050000000    -0.185311   
C364     C      0.322310000000     0.974430000000     0.963450000000    -0.0314579  
C365     C      0.160500000000     0.015300000000     0.005950000000    -0.0274311  
C366     C      0.123970000000     0.985570000000     0.956700000000    -0.0116847  
C367     C      0.127070000000     0.026400000000     0.999670000000    -0.0111539  
C368     C      0.228820000000     0.015760000000     0.963120000000    -0.0535272  
C369     C      0.251370000000     0.969920000000     0.003960000000    -0.0538864  
C370     C      0.207650000000     0.997620000000     0.980320000000     0.0599523  
C371     C      0.157510000000     0.976230000000     0.964870000000    -0.0288299  
C372     C      0.272530000000     0.988190000000     0.986900000000     0.0594197  
C373     C      0.320290000000     0.011110000000     0.006560000000    -0.0575163  
C374     C      0.261020000000     0.011200000000     0.966340000000    -0.0554297  
C375     C      0.353530000000     0.002820000000     0.017350000000     0.0808891  
C376     C      0.355720000000     0.964400000000     0.971580000000    -0.00814985 
C377     C      0.219180000000     0.974520000000     0.000780000000    -0.0563965  
C378     C      0.352700000000     0.981470000000     0.046230000000    -0.184614   
C379     C      0.008590000000     0.986970000000     0.827070000000    -0.0319661  
C380     C      0.964500000000     0.981880000000     0.662690000000    -0.0288307  
C381     C      0.012340000000     0.020290000000     0.632850000000    -0.00908504 
C382     C      0.960090000000     0.991960000000     0.628770000000    -0.0118625  
C383     C      0.983470000000     0.028590000000     0.731990000000    -0.0548557  
C384     C      0.981170000000     0.969740000000     0.760240000000    -0.0531389  
C385     C      0.983060000000     0.001710000000     0.713210000000     0.0622848  
C386     C      0.014520000000     0.008270000000     0.666500000000    -0.0275915  
C387     C      0.980470000000     0.996630000000     0.779000000000     0.0587441  
C388     C      0.961140000000     0.017780000000     0.829010000000    -0.0579786  
C389     C      0.982860000000     0.026200000000     0.764550000000    -0.0540562  
C390     C      0.953970000000     0.007710000000     0.862780000000     0.0804632  
C391     C      0.003590000000     0.974310000000     0.860090000000    -0.00510356 
C392     C      0.983180000000     0.972100000000     0.727760000000    -0.0573464  
C393     C      0.927210000000     0.983750000000     0.863550000000    -0.185131   
C394     C      0.975000000000     0.986500000000     0.166530000000    -0.0329231  
C395     C      0.028870000000     0.977430000000     0.328970000000    -0.0289071  
C396     C      0.981870000000     0.016000000000     0.359950000000    -0.0100551  
C397     C      0.034430000000     0.987890000000     0.362700000000    -0.0115208  
C398     C      0.008090000000     0.023140000000     0.259860000000    -0.053134   
C399     C      0.005560000000     0.963920000000     0.232360000000    -0.0539136  
C400     C      0.008190000000     0.996490000000     0.278970000000     0.0600461  
C401     C      0.978570000000     0.003340000000     0.326680000000    -0.0289748  
C402     C      0.006590000000     0.990540000000     0.213250000000     0.059756   
C403     C      0.027220000000     0.008070000000     0.162690000000    -0.0568057  
C404     C      0.006680000000     0.020340000000     0.227360000000    -0.05499    
C405     C      0.030940000000     0.997440000000     0.128590000000     0.0782873  
C406     C      0.976030000000     0.974110000000     0.132980000000    -0.00810016 
C407     C      0.005730000000     0.966760000000     0.264900000000    -0.0558087  
C408     C      0.052390000000     0.968690000000     0.126430000000    -0.184016   
H1       H      0.449100000000     0.481770000000     0.709360000000     0.0407685  
H2       H      0.509110000000     0.435740000000     0.815960000000     0.0351062  
H3       H      0.468950000000     0.526360000000     0.809500000000     0.0410448  
H4       H      0.518180000000     0.440160000000     0.627790000000     0.0397094  
H5       H      0.474410000000     0.439180000000     0.860100000000     0.0366951  
H6       H      0.520970000000     0.526880000000     0.677960000000     0.0344796  
H7       H      0.483800000000     0.435000000000     0.672110000000     0.0348799  
H8       H      0.517190000000     0.532480000000     0.619820000000     0.0435704  
H9       H      0.472700000000     0.531920000000     0.868030000000     0.0227417  
H10      H      0.441940000000     0.480220000000     0.766000000000     0.0424539  
H11      H      0.513700000000     0.441550000000     0.874250000000     0.0444191  
H12      H      0.549200000000     0.481740000000     0.721980000000     0.0444955  
H13      H      0.531100000000     0.469570000000     0.828570000000     0.0382207  
H14      H      0.478690000000     0.440560000000     0.613840000000     0.0447668  
H15      H      0.481850000000     0.520960000000     0.663370000000     0.0390227  
H16      H      0.460350000000     0.467890000000     0.659670000000     0.0377394  
H17      H      0.541990000000     0.483100000000     0.778620000000     0.0410409  
H18      H      0.507630000000     0.521440000000     0.824980000000     0.0450374  
H19      H      0.544530000000     0.503110000000     0.632370000000     0.0412348  
H20      H      0.422270000000     0.519180000000     0.843040000000     0.0638099  
H21      H      0.425500000000     0.499700000000     0.880130000000     0.0781845  
H22      H      0.430930000000     0.477810000000     0.844520000000     0.0734026  
H23      H      0.493160000000     0.552490000000     0.276080000000     0.0407268  
H24      H      0.535650000000     0.526810000000     0.174580000000     0.0344674  
H25      H      0.442900000000     0.491530000000     0.173560000000     0.0414986  
H26      H      0.510350000000     0.456660000000     0.354890000000     0.0421134  
H27      H      0.511420000000     0.549460000000     0.128870000000     0.0381279  
H28      H      0.445980000000     0.522010000000     0.313900000000     0.0347068  
H29      H      0.535330000000     0.479200000000     0.309760000000     0.0342966  
H30      H      0.451630000000     0.527650000000     0.372410000000     0.0446061  
H31      H      0.447150000000     0.483420000000     0.115120000000     0.0245519  
H32      H      0.491320000000     0.557960000000     0.219230000000     0.0429255  
H33      H      0.539190000000     0.520520000000     0.116450000000     0.0423954  
H34      H      0.489890000000     0.451990000000     0.266530000000     0.0445054  
H35      H      0.528110000000     0.487350000000     0.161670000000     0.038919   
H36      H      0.540000000000     0.483230000000     0.368220000000     0.0427929  
H37      H      0.480220000000     0.543170000000     0.326720000000     0.0370308  
H38      H      0.531230000000     0.518600000000     0.324260000000     0.038457   
H39      H      0.491010000000     0.457420000000     0.209700000000     0.0408298  
H40      H      0.474710000000     0.467390000000     0.160440000000     0.0435416  
H41      H      0.446930000000     0.488370000000     0.358650000000     0.0401401  
H42      H      0.417080000000     0.527570000000     0.136540000000     0.0628881  
H43      H      0.436320000000     0.538940000000     0.100960000000     0.0725048  
H44      H      0.451760000000     0.551710000000     0.138070000000     0.0728262  
H45      H      0.515980000000     0.706640000000     0.461790000000     0.0411959  
H46      H      0.456180000000     0.813810000000     0.456470000000     0.0348406  
H47      H      0.530060000000     0.810010000000     0.522390000000     0.0412259  
H48      H      0.435320000000     0.628820000000     0.500600000000     0.0403067  
H49      H      0.488530000000     0.857930000000     0.443600000000     0.0379214  
H50      H      0.515210000000     0.676350000000     0.536520000000     0.0349049  
H51      H      0.444070000000     0.673840000000     0.467580000000     0.0349911  
H52      H      0.521060000000     0.618200000000     0.533290000000     0.0451759  
H53      H      0.527720000000     0.868960000000     0.527720000000     0.0229266  
H54      H      0.523110000000     0.763240000000     0.454820000000     0.0432958  
H55      H      0.453850000000     0.872410000000     0.462080000000     0.0434315  
H56      H      0.449030000000     0.724150000000     0.535070000000     0.0447211  
H57      H      0.449990000000     0.827240000000     0.495920000000     0.0373982  
H58      H      0.449630000000     0.615480000000     0.463500000000     0.0448245  
H59      H      0.524480000000     0.662520000000     0.497790000000     0.0385826  
H60      H      0.483010000000     0.661120000000     0.457560000000     0.0383027  
H61      H      0.456330000000     0.780790000000     0.528220000000     0.0405369  
H62      H      0.492710000000     0.825630000000     0.533380000000     0.0428696  
H63      H      0.483770000000     0.630770000000     0.547850000000     0.0403095  
H64      H      0.569560000000     0.843430000000     0.497140000000     0.063937   
H65      H      0.558700000000     0.880080000000     0.479610000000     0.0772568  
H66      H      0.545480000000     0.843860000000     0.462430000000     0.0735033  
H67      H      0.537840000000     0.282000000000     0.522190000000     0.040976   
H68      H      0.475980000000     0.178370000000     0.532940000000     0.0349307  
H69      H      0.547220000000     0.174660000000     0.464100000000     0.0414284  
H70      H      0.453040000000     0.356380000000     0.483130000000     0.0392279  
H71      H      0.506370000000     0.132570000000     0.545640000000     0.0373708  
H72      H      0.537770000000     0.315090000000     0.450570000000     0.0348962  
H73      H      0.463090000000     0.311360000000     0.515560000000     0.0344706  
H74      H      0.540330000000     0.373780000000     0.456780000000     0.044271   
H75      H      0.540580000000     0.116110000000     0.460820000000     0.0243004  
H76      H      0.543790000000     0.225420000000     0.530500000000     0.0432254  
H77      H      0.469530000000     0.120030000000     0.530100000000     0.0436238  
H78      H      0.469980000000     0.264170000000     0.449840000000     0.044711   
H79      H      0.467000000000     0.164030000000     0.494360000000     0.0382042  
H80      H      0.464540000000     0.369520000000     0.521240000000     0.0438583  
H81      H      0.544040000000     0.328050000000     0.490160000000     0.0377478  
H82      H      0.500660000000     0.326180000000     0.527750000000     0.0381796  
H83      H      0.475780000000     0.207630000000     0.458280000000     0.0408485  
H84      H      0.508480000000     0.161450000000     0.454820000000     0.0438079  
H85      H      0.505390000000     0.359610000000     0.438400000000     0.0406553  
H86      H      0.584970000000     0.138880000000     0.489490000000     0.0636487  
H87      H      0.571590000000     0.103910000000     0.508680000000     0.0758284  
H88      H      0.561940000000     0.141730000000     0.524780000000     0.0730987  
H89      H      0.474310000000     0.707510000000     0.022880000000     0.040321   
H90      H      0.532970000000     0.815320000000     0.030990000000     0.0346608  
H91      H      0.461130000000     0.811110000000     0.962890000000     0.041101   
H92      H      0.556720000000     0.630770000000     0.985720000000     0.0398058  
H93      H      0.499760000000     0.859040000000     0.043120000000     0.0367151  
H94      H      0.477690000000     0.677750000000     0.947970000000     0.0344109  
H95      H      0.546880000000     0.675510000000     0.018910000000     0.0347841  
H96      H      0.472250000000     0.619550000000     0.950720000000     0.0440144  
H97      H      0.462920000000     0.870070000000     0.957970000000     0.0236737  
H98      H      0.466490000000     0.763970000000     0.030170000000     0.0425463  
H99      H      0.534820000000     0.874000000000     0.025750000000     0.0434708  
H100     H      0.543380000000     0.726290000000     0.951910000000     0.0447045  
H101     H      0.540200000000     0.829060000000     0.991830000000     0.0376404  
H102     H      0.541880000000     0.617150000000     0.022510000000     0.0443276  
H103     H      0.467350000000     0.663690000000     0.986340000000     0.0372978  
H104     H      0.507790000000     0.662410000000     0.027850000000     0.0375449  
H105     H      0.535390000000     0.782790000000     0.959080000000     0.0408772  
H106     H      0.498610000000     0.827210000000     0.953090000000     0.0435672  
H107     H      0.509960000000     0.632460000000     0.937550000000     0.0399722  
H108     H      0.420540000000     0.843920000000     0.987230000000     0.0628234  
H109     H      0.430500000000     0.880590000000     0.005260000000     0.0751644  
H110     H      0.443620000000     0.844420000000     0.022600000000     0.0719634  
H111     H      0.451280000000     0.284110000000     0.969030000000     0.0409976  
H112     H      0.512240000000     0.180040000000     0.956580000000     0.035065   
H113     H      0.440080000000     0.175600000000     0.024420000000     0.0414191  
H114     H      0.537830000000     0.356340000000     0.007470000000     0.038495   
H115     H      0.481500000000     0.134850000000     0.942580000000     0.0372498  
H116     H      0.453400000000     0.316700000000     0.041510000000     0.0347416  
H117     H      0.526560000000     0.311610000000     0.974860000000     0.0345677  
H118     H      0.451960000000     0.375420000000     0.035670000000     0.043867   
H119     H      0.446070000000     0.116910000000     0.026510000000     0.024211   
H120     H      0.444390000000     0.227790000000     0.959800000000     0.0431384  
H121     H      0.518060000000     0.121620000000     0.958180000000     0.0439994  
H122     H      0.519260000000     0.263980000000     0.040670000000     0.0447328  
H123     H      0.520620000000     0.164750000000     0.994940000000     0.038465   
H124     H      0.526430000000     0.369690000000     0.969410000000     0.044429   
H125     H      0.446360000000     0.329860000000     0.002100000000     0.0378157  
H126     H      0.489090000000     0.327220000000     0.963370000000     0.0383785  
H127     H      0.512360000000     0.207680000000     0.031460000000     0.0409469  
H128     H      0.478570000000     0.161810000000     0.033940000000     0.0440402  
H129     H      0.487310000000     0.360500000000     0.052700000000     0.0400321  
H130     H      0.402340000000     0.140710000000     0.997680000000     0.0636123  
H131     H      0.415700000000     0.106060000000     0.977910000000     0.0757532  
H132     H      0.425920000000     0.144150000000     0.962820000000     0.0730917  
H133     H      0.450500000000     0.988500000000     0.776330000000     0.0407445  
H134     H      0.472280000000     0.030110000000     0.676380000000     0.0344452  
H135     H      0.517700000000     0.941860000000     0.673330000000     0.0413637  
H136     H      0.543590000000     0.006240000000     0.857620000000     0.0414928  
H137     H      0.451220000000     0.004240000000     0.630920000000     0.0388853  
H138     H      0.481720000000     0.941230000000     0.814400000000     0.0347995  
H139     H      0.522810000000     0.031580000000     0.811520000000     0.0344213  
H140     H      0.474620000000     0.946060000000     0.872470000000     0.0448871  
H141     H      0.524010000000     0.947910000000     0.614670000000     0.0242945  
H142     H      0.445790000000     0.986510000000     0.719490000000     0.0428868  
H143     H      0.476860000000     0.034940000000     0.618190000000     0.0424411  
H144     H      0.551050000000     0.986750000000     0.768090000000     0.0441714  
H145     H      0.511960000000     0.026970000000     0.662540000000     0.0390094  
H146     H      0.516900000000     0.036430000000     0.869640000000     0.0430392  
H147     H      0.459190000000     0.974900000000     0.826520000000     0.0376635  
H148     H      0.482940000000     0.027060000000     0.824480000000     0.0389968  
H149     H      0.546350000000     0.987830000000     0.711220000000     0.0405256  
H150     H      0.537590000000     0.976510000000     0.660190000000     0.0429999  
H151     H      0.514560000000     0.944270000000     0.860030000000     0.0396187  
H152     H      0.484550000000     0.912190000000     0.636820000000     0.0637771  
H153     H      0.470100000000     0.930110000000     0.601670000000     0.0749029  
H154     H      0.456300000000     0.943580000000     0.639170000000     0.0735451  
H155     H      0.442390000000     0.997180000000     0.277590000000     0.0401063  
H156     H      0.463030000000     0.039520000000     0.174870000000     0.034274   
H157     H      0.504020000000     0.949050000000     0.174770000000     0.0413421  
H158     H      0.539080000000     0.013980000000     0.355180000000     0.0417843  
H159     H      0.440410000000     0.012870000000     0.130530000000     0.0373112  
H160     H      0.475040000000     0.949670000000     0.312910000000     0.0343123  
H161     H      0.515410000000     0.040340000000     0.311270000000     0.0342121  
H162     H      0.470680000000     0.952590000000     0.371470000000     0.0441538  
H163     H      0.509800000000     0.952250000000     0.116030000000     0.0245894  
H164     H      0.435730000000     0.995340000000     0.220900000000     0.0422986  
H165     H      0.467240000000     0.041940000000     0.116420000000     0.0419405  
H166     H      0.542610000000     0.997340000000     0.265820000000     0.0442352  
H167     H      0.502400000000     0.034080000000     0.160780000000     0.0392132  
H168     H      0.512370000000     0.042880000000     0.369890000000     0.0424531  
H169     H      0.453170000000     0.982820000000     0.327420000000     0.0363399  
H170     H      0.476370000000     0.034830000000     0.326200000000     0.0381743  
H171     H      0.535890000000     0.998650000000     0.209140000000     0.0406932  
H172     H      0.525560000000     0.982040000000     0.160020000000     0.0434461  
H173     H      0.509870000000     0.950530000000     0.356880000000     0.0395458  
H174     H      0.468440000000     0.920030000000     0.139810000000     0.0626482  
H175     H      0.454680000000     0.937550000000     0.104170000000     0.0717108  
H176     H      0.442240000000     0.953190000000     0.141310000000     0.0718597  
H177     H      0.710760000000     0.453440000000     0.492220000000     0.0409528  
H178     H      0.816310000000     0.514030000000     0.442390000000     0.0349932  
H179     H      0.812130000000     0.472120000000     0.532230000000     0.0408783  
H180     H      0.630700000000     0.520800000000     0.445070000000     0.0396183  
H181     H      0.859970000000     0.478530000000     0.443590000000     0.036636   
H182     H      0.677410000000     0.526960000000     0.532820000000     0.0345635  
H183     H      0.675280000000     0.486300000000     0.442400000000     0.0350882  
H184     H      0.618890000000     0.522410000000     0.536470000000     0.0431137  
H185     H      0.870890000000     0.474620000000     0.535830000000     0.0227546  
H186     H      0.767400000000     0.446180000000     0.490100000000     0.0422722  
H187     H      0.874910000000     0.517530000000     0.446370000000     0.0443024  
H188     H      0.723330000000     0.553510000000     0.487170000000     0.0445393  
H189     H      0.830410000000     0.535100000000     0.476190000000     0.0380722  
H190     H      0.617030000000     0.481180000000     0.445580000000     0.0452861  
H191     H      0.663550000000     0.487390000000     0.528000000000     0.0391065  
H192     H      0.661730000000     0.463880000000     0.475540000000     0.0383122  
H193     H      0.780030000000     0.546380000000     0.488110000000     0.0408823  
H194     H      0.828160000000     0.510640000000     0.527500000000     0.0450674  
H195     H      0.632210000000     0.548900000000     0.506660000000     0.0412996  
H196     H      0.844480000000     0.424900000000     0.522890000000     0.0636423  
H197     H      0.881010000000     0.427860000000     0.502310000000     0.0780956  
H198     H      0.844780000000     0.434430000000     0.481770000000     0.0733681  
H199     H      0.209860000000     0.447070000000     0.491690000000     0.0407104  
H200     H      0.315280000000     0.502460000000     0.446620000000     0.0353044  
H201     H      0.312980000000     0.467180000000     0.539300000000     0.040941   
H202     H      0.132840000000     0.516770000000     0.444410000000     0.0396409  
H203     H      0.359170000000     0.467350000000     0.450390000000     0.0364846  
H204     H      0.177870000000     0.522780000000     0.533500000000     0.0339169  
H205     H      0.175930000000     0.480340000000     0.443850000000     0.0350328  
H206     H      0.119560000000     0.522190000000     0.535550000000     0.0432595  
H207     H      0.372120000000     0.471770000000     0.541990000000     0.0215553  
H208     H      0.266380000000     0.438570000000     0.492490000000     0.0426895  
H209     H      0.373490000000     0.506640000000     0.448890000000     0.0447394  
H210     H      0.224870000000     0.546970000000     0.492800000000     0.0442938  
H211     H      0.329610000000     0.526260000000     0.478440000000     0.0386542  
H212     H      0.117170000000     0.477900000000     0.446000000000     0.0448426  
H213     H      0.161880000000     0.483970000000     0.528960000000     0.0385696  
H214     H      0.160570000000     0.459350000000     0.477140000000     0.0377886  
H215     H      0.281260000000     0.538340000000     0.496670000000     0.0411039  
H216     H      0.328020000000     0.505680000000     0.531800000000     0.0446489  
H217     H      0.135050000000     0.546640000000     0.505070000000     0.0409724  
H218     H      0.346990000000     0.420430000000     0.533650000000     0.0638732  
H219     H      0.382950000000     0.422740000000     0.512030000000     0.0790077  
H220     H      0.346100000000     0.426620000000     0.491920000000     0.0734647  
H221     H      0.775720000000     0.480460000000     0.041330000000     0.0403413  
H222     H      0.679580000000     0.522210000000     0.017350000000     0.034233   
H223     H      0.673080000000     0.436120000000     0.968310000000     0.0411642  
H224     H      0.858230000000     0.500440000000     0.948690000000     0.0417771  
H225     H      0.632760000000     0.497860000000     0.036900000000     0.0393019  
H226     H      0.817960000000     0.437110000000     0.015030000000     0.0343857  
H227     H      0.810520000000     0.523890000000     0.967420000000     0.034122   
H228     H      0.875610000000     0.446860000000     0.023300000000     0.0433756  
H229     H      0.614690000000     0.445940000000     0.960960000000     0.0241347  
H230     H      0.718840000000     0.478050000000     0.043760000000     0.0428798  
H231     H      0.621880000000     0.530010000000     0.012190000000     0.042652   
H232     H      0.771540000000     0.477750000000     0.940590000000     0.0442018  
H233     H      0.666230000000     0.521100000000     0.977440000000     0.0388336  
H234     H      0.868170000000     0.532570000000     0.973870000000     0.0423706  
H235     H      0.827470000000     0.473200000000     0.034920000000     0.0363144  
H236     H      0.823100000000     0.522710000000     0.007590000000     0.0384871  
H237     H      0.714530000000     0.478450000000     0.943000000000     0.0406228  
H238     H      0.662180000000     0.472290000000     0.949830000000     0.0428849  
H239     H      0.864350000000     0.439600000000     0.983660000000     0.039438   
H240     H      0.634320000000     0.406570000000     0.998420000000     0.0636353  
H241     H      0.599720000000     0.425250000000     0.013240000000     0.0760217  
H242     H      0.637510000000     0.435990000000     0.028630000000     0.0739237  
H243     H      0.216430000000     0.509050000000     0.049740000000     0.0404722  
H244     H      0.311670000000     0.467550000000     0.019570000000     0.0341465  
H245     H      0.317030000000     0.557000000000     0.976880000000     0.0407808  
H246     H      0.132530000000     0.487530000000     0.958890000000     0.0427015  
H247     H      0.359360000000     0.489990000000     0.039190000000     0.0387157  
H248     H      0.172720000000     0.552840000000     0.024830000000     0.0345689  
H249     H      0.180740000000     0.465970000000     0.977670000000     0.034124   
H250     H      0.115180000000     0.541200000000     0.034710000000     0.0441883  
H251     H      0.375140000000     0.547540000000     0.966820000000     0.023003   
H252     H      0.273420000000     0.511840000000     0.050580000000     0.0427491  
H253     H      0.369080000000     0.459860000000     0.011650000000     0.0423971  
H254     H      0.217680000000     0.514540000000     0.949060000000     0.0442348  
H255     H      0.323590000000     0.471580000000     0.979400000000     0.0381248  
H256     H      0.123090000000     0.456560000000     0.985540000000     0.0421678  
H257     H      0.164250000000     0.516620000000     0.044850000000     0.0363254  
H258     H      0.168600000000     0.467500000000     0.017940000000     0.0382835  
H259     H      0.274780000000     0.514430000000     0.949800000000     0.0403053  
H260     H      0.327060000000     0.522300000000     0.955390000000     0.0418927  
H261     H      0.125520000000     0.550700000000     0.995350000000     0.0405633  
H262     H      0.356980000000     0.584050000000     0.007790000000     0.0631626  
H263     H      0.391950000000     0.564210000000     0.020000000000     0.0743254  
H264     H      0.354640000000     0.552440000000     0.035790000000     0.0724707  
H265     H      0.003730000000     0.444930000000     0.779240000000     0.040663   
H266     H      0.957700000000     0.468340000000     0.678390000000     0.0343671  
H267     H      0.048730000000     0.507750000000     0.675810000000     0.0416146  
H268     H      0.980550000000     0.538770000000     0.858050000000     0.0400883  
H269     H      0.981940000000     0.446480000000     0.632380000000     0.0383248  
H270     H      0.049730000000     0.479590000000     0.816690000000     0.0345278  
H271     H      0.957050000000     0.514660000000     0.812800000000     0.0339795  
H272     H      0.044800000000     0.473230000000     0.875130000000     0.0440607  
H273     H      0.043320000000     0.515190000000     0.617390000000     0.0247821  
H274     H      0.004950000000     0.439310000000     0.722390000000     0.0431701  
H275     H      0.953020000000     0.474380000000     0.620210000000     0.0424455  
H276     H      0.000830000000     0.545390000000     0.769270000000     0.0446208  
H277     H      0.963330000000     0.508030000000     0.665190000000     0.0387855  
H278     H      0.952660000000     0.510170000000     0.871030000000     0.0429306  
H279     H      0.017510000000     0.455370000000     0.829350000000     0.0366524  
H280     H      0.964360000000     0.475620000000     0.827040000000     0.0380816  
H281     H      0.999160000000     0.539630000000     0.712460000000     0.0395537  
H282     H      0.015650000000     0.530280000000     0.662980000000     0.0439112  
H283     H      0.045440000000     0.512910000000     0.861660000000     0.0398035  
H284     H      0.075680000000     0.472630000000     0.638840000000     0.063786   
H285     H      0.056630000000     0.460130000000     0.603540000000     0.074832   
H286     H      0.042170000000     0.446920000000     0.640890000000     0.0737635  
H287     H      0.945770000000     0.505580000000     0.279320000000     0.0405216  
H288     H      0.005450000000     0.552210000000     0.174380000000     0.0350782  
H289     H      0.970010000000     0.459570000000     0.178880000000     0.0412052  
H290     H      0.014420000000     0.547590000000     0.361710000000     0.0413338  
H291     H      0.972200000000     0.547740000000     0.129320000000     0.0373439  
H292     H      0.015010000000     0.459650000000     0.312180000000     0.0344349  
H293     H      0.981250000000     0.552860000000     0.316680000000     0.034887   
H294     H      0.010080000000     0.454810000000     0.370380000000     0.0436564  
H295     H      0.975480000000     0.454960000000     0.120290000000     0.0224631  
H296     H      0.939580000000     0.506770000000     0.222490000000     0.0425601  
H297     H      0.011900000000     0.547220000000     0.116160000000     0.045699   
H298     H      0.046050000000     0.505050000000     0.268380000000     0.0444088  
H299     H      0.029470000000     0.519740000000     0.162010000000     0.0377627  
H300     H      0.974730000000     0.547640000000     0.375050000000     0.0450318  
H301     H      0.976020000000     0.467340000000     0.326270000000     0.0376317  
H302     H      0.956540000000     0.520900000000     0.329000000000     0.0373403  
H303     H      0.039790000000     0.503520000000     0.211570000000     0.0409454  
H304     H      0.008710000000     0.466750000000     0.164350000000     0.0457549  
H305     H      0.039130000000     0.482430000000     0.357800000000     0.0417502  
H306     H      0.923860000000     0.464460000000     0.144430000000     0.0639207  
H307     H      0.926710000000     0.484450000000     0.107590000000     0.0789443  
H308     H      0.930150000000     0.506270000000     0.143480000000     0.073519   
H309     H      0.986030000000     0.711540000000     0.455490000000     0.0408143  
H310     H      0.941730000000     0.818560000000     0.518000000000     0.0350196  
H311     H      0.029930000000     0.811510000000     0.473050000000     0.0410569  
H312     H      0.941570000000     0.630520000000     0.522740000000     0.0393326  
H313     H      0.943040000000     0.862270000000     0.482650000000     0.0367669  
H314     H      0.028450000000     0.678830000000     0.529910000000     0.0346268  
H315     H      0.938590000000     0.674950000000     0.487970000000     0.0350378  
H316     H      0.033030000000     0.620550000000     0.526440000000     0.0438312  
H317     H      0.035540000000     0.870270000000     0.475560000000     0.022509   
H318     H      0.985260000000     0.768250000000     0.448470000000     0.0421647  
H319     H      0.947820000000     0.877010000000     0.521470000000     0.0444776  
H320     H      0.984880000000     0.723930000000     0.555550000000     0.0441047  
H321     H      0.976750000000     0.831490000000     0.537800000000     0.0379195  
H322     H      0.942880000000     0.616550000000     0.483290000000     0.0450778  
H323     H      0.024440000000     0.664480000000     0.490490000000     0.0397733  
H324     H      0.972310000000     0.661800000000     0.466150000000     0.0381919  
H325     H      0.987160000000     0.780620000000     0.548520000000     0.0407497  
H326     H      0.027030000000     0.827600000000     0.511660000000     0.0452681  
H327     H      0.002110000000     0.633590000000     0.551770000000     0.0411656  
H328     H      0.020200000000     0.844230000000     0.426340000000     0.0638124  
H329     H      0.000960000000     0.881460000000     0.429900000000     0.0787912  
H330     H      0.979390000000     0.845930000000     0.437140000000     0.0726123  
H331     H      0.007680000000     0.279490000000     0.447440000000     0.0408073  
H332     H      0.053350000000     0.175510000000     0.515200000000     0.034998   
H333     H      0.966460000000     0.179790000000     0.467440000000     0.0402399  
H334     H      0.048580000000     0.364330000000     0.511760000000     0.0394885  
H335     H      0.053860000000     0.130520000000     0.481510000000     0.0370281  
H336     H      0.962390000000     0.312970000000     0.519820000000     0.0335238  
H337     H      0.052380000000     0.319060000000     0.478580000000     0.034796   
H338     H      0.955860000000     0.371140000000     0.514560000000     0.0413401  
H339     H      0.961650000000     0.121180000000     0.471480000000     0.0211934  
H340     H      0.010540000000     0.222630000000     0.442590000000     0.0424114  
H341     H      0.047720000000     0.117030000000     0.520600000000     0.044377   
H342     H      0.007110000000     0.270880000000     0.547890000000     0.0442533  
H343     H      0.017910000000     0.162800000000     0.534360000000     0.0379429  
H344     H      0.045550000000     0.377200000000     0.472060000000     0.0449788  
H345     H      0.966570000000     0.326630000000     0.480190000000     0.0379667  
H346     H      0.018250000000     0.330470000000     0.456470000000     0.0376154  
H347     H      0.006930000000     0.213930000000     0.542980000000     0.0408042  
H348     H      0.968480000000     0.164930000000     0.506590000000     0.0440383  
H349     H      0.986020000000     0.359540000000     0.541380000000     0.0406498  
H350     H      0.978290000000     0.145990000000     0.422040000000     0.0635969  
H351     H      0.997810000000     0.109100000000     0.427300000000     0.0786924  
H352     H      0.018740000000     0.145090000000     0.434190000000     0.0745702  
H353     H      0.710870000000     0.029160000000     0.522450000000     0.0403884  
H354     H      0.815810000000     0.971560000000     0.533230000000     0.0347146  
H355     H      0.816120000000     0.037430000000     0.459130000000     0.0410228  
H356     H      0.634890000000     0.942350000000     0.493790000000     0.0390626  
H357     H      0.860540000000     0.004320000000     0.542930000000     0.0379647  
H358     H      0.678380000000     0.021110000000     0.449600000000     0.0345892  
H359     H      0.680410000000     0.955840000000     0.524170000000     0.0345691  
H360     H      0.620210000000     0.025020000000     0.454080000000     0.0440693  
H361     H      0.875120000000     0.031850000000     0.455190000000     0.0230099  
H362     H      0.767410000000     0.037810000000     0.527600000000     0.04325    
H363     H      0.873970000000     0.966770000000     0.530000000000     0.0442509  
H364     H      0.728170000000     0.956170000000     0.455040000000     0.0443936  
H365     H      0.829870000000     0.960260000000     0.495140000000     0.0380411  
H366     H      0.621930000000     0.959960000000     0.529570000000     0.0435737  
H367     H      0.665120000000     0.032880000000     0.487850000000     0.037257   
H368     H      0.666490000000     0.995060000000     0.531180000000     0.0372692  
H369     H      0.784710000000     0.964900000000     0.460110000000     0.0409645  
H370     H      0.830260000000     0.998430000000     0.452680000000     0.0426878  
H371     H      0.633910000000     0.987280000000     0.441830000000     0.0395888  
H372     H      0.851290000000     0.078200000000     0.480030000000     0.0634663  
H373     H      0.886930000000     0.067680000000     0.499680000000     0.0767353  
H374     H      0.849750000000     0.058400000000     0.517310000000     0.0731631  
H375     H      0.210210000000     0.026290000000     0.468620000000     0.040871   
H376     H      0.317620000000     0.037770000000     0.526530000000     0.0348951  
H377     H      0.315420000000     0.968090000000     0.456000000000     0.0412047  
H378     H      0.135620000000     0.987860000000     0.552750000000     0.0394708  
H379     H      0.361570000000     0.049390000000     0.493230000000     0.0375901  
H380     H      0.180690000000     0.951800000000     0.472020000000     0.0346696  
H381     H      0.179770000000     0.021670000000     0.542370000000     0.0351661  
H382     H      0.122280000000     0.954620000000     0.467880000000     0.0443081  
H383     H      0.374170000000     0.963750000000     0.458860000000     0.024286   
H384     H      0.266460000000     0.034670000000     0.460620000000     0.0434003  
H385     H      0.376160000000     0.033770000000     0.529250000000     0.0438642  
H386     H      0.230540000000     0.956010000000     0.538020000000     0.0445525  
H387     H      0.331770000000     0.998920000000     0.534930000000     0.0373988  
H388     H      0.121430000000     0.024940000000     0.539050000000     0.0447338  
H389     H      0.166280000000     0.990360000000     0.462680000000     0.0379499  
H390     H      0.165660000000     0.031160000000     0.503800000000     0.0384598  
H391     H      0.286790000000     0.964390000000     0.530010000000     0.0410103  
H392     H      0.330910000000     0.958950000000     0.493880000000     0.0436568  
H393     H      0.136120000000     0.940500000000     0.504880000000     0.0399768  
H394     H      0.349030000000     0.992420000000     0.415740000000     0.0629833  
H395     H      0.385130000000     0.011090000000     0.426520000000     0.0759906  
H396     H      0.348400000000     0.028070000000     0.438450000000     0.0729327  
H397     H      0.991320000000     0.780860000000     0.945020000000     0.0402094  
H398     H      0.038860000000     0.677850000000     0.005850000000     0.0351637  
H399     H      0.947880000000     0.678010000000     0.966160000000     0.0408082  
H400     H      0.038480000000     0.860370000000     0.011360000000     0.0393616  
H401     H      0.037730000000     0.633290000000     0.971470000000     0.0367206  
H402     H      0.949510000000     0.814600000000     0.019940000000     0.0335118  
H403     H      0.038560000000     0.816420000000     0.976200000000     0.03477    
H404     H      0.946810000000     0.873130000000     0.017470000000     0.0414542  
H405     H      0.946030000000     0.618970000000     0.971190000000     0.0216253  
H406     H      0.992380000000     0.724060000000     0.938410000000     0.0423609  
H407     H      0.037210000000     0.619520000000     0.010920000000     0.0446791  
H408     H      0.991290000000     0.769120000000     0.045190000000     0.0437423  
H409     H      0.006080000000     0.663270000000     0.028200000000     0.0385056  
H410     H      0.035640000000     0.875070000000     0.972270000000     0.0447204  
H411     H      0.953440000000     0.829640000000     0.980760000000     0.0376906  
H412     H      0.004670000000     0.830980000000     0.955540000000     0.0377572  
H413     H      0.989140000000     0.712370000000     0.038480000000     0.04056    
H414     H      0.953860000000     0.663540000000     0.005090000000     0.0445982  
H415     H      0.977250000000     0.858460000000     0.042470000000     0.0406097  
H416     H      0.956620000000     0.643760000000     0.920170000000     0.0638198  
H417     H      0.978630000000     0.608110000000     0.923960000000     0.0789698  
H418     H      0.998000000000     0.645330000000     0.928460000000     0.0732385  
H419     H      0.991410000000     0.212450000000     0.949210000000     0.0407212  
H420     H      0.950550000000     0.316330000000     0.013320000000     0.0350046  
H421     H      0.039680000000     0.313310000000     0.969810000000     0.0409919  
H422     H      0.943260000000     0.133530000000     0.015200000000     0.039785   
H423     H      0.951290000000     0.360930000000     0.979150000000     0.0367212  
H424     H      0.033590000000     0.176450000000     0.023730000000     0.0341895  
H425     H      0.944300000000     0.177820000000     0.980420000000     0.0348178  
H426     H      0.034380000000     0.118040000000     0.021110000000     0.0437634  
H427     H      0.043530000000     0.372390000000     0.974710000000     0.0213914  
H428     H      0.992740000000     0.269290000000     0.943300000000     0.0422743  
H429     H      0.954470000000     0.374540000000     0.018530000000     0.0446146  
H430     H      0.994900000000     0.222880000000     0.049470000000     0.0439758  
H431     H      0.984790000000     0.329740000000     0.034150000000     0.0378079  
H432     H      0.945380000000     0.119090000000     0.975960000000     0.0449475  
H433     H      0.029010000000     0.161820000000     0.984470000000     0.0392758  
H434     H      0.977610000000     0.162420000000     0.959420000000     0.0377263  
H435     H      0.999430000000     0.279560000000     0.043350000000     0.0406092  
H436     H      0.035700000000     0.327960000000     0.008900000000     0.0449857  
H437     H      0.004230000000     0.133460000000     0.046020000000     0.0415394  
H438     H      0.030280000000     0.347570000000     0.924190000000     0.0638283  
H439     H      0.009730000000     0.384000000000     0.928530000000     0.0797457  
H440     H      0.989190000000     0.347570000000     0.934020000000     0.0727003  
H441     H      0.702390000000     0.969630000000     0.969780000000     0.0412698  
H442     H      0.807460000000     0.028700000000     0.961690000000     0.0349288  
H443     H      0.806810000000     0.960120000000     0.033260000000     0.0413104  
H444     H      0.624940000000     0.053540000000     0.003000000000     0.0406161  
H445     H      0.852250000000     0.996520000000     0.950820000000     0.0357093  
H446     H      0.669530000000     0.973690000000     0.042670000000     0.0347157  
H447     H      0.670870000000     0.043040000000     0.971840000000     0.0349926  
H448     H      0.611480000000     0.968850000000     0.037510000000     0.0452057  
H449     H      0.865790000000     0.964980000000     0.037680000000     0.0233245  
H450     H      0.759030000000     0.962030000000     0.964270000000     0.042723   
H451     H      0.865820000000     0.033160000000     0.965990000000     0.0432602  
H452     H      0.718680000000     0.039970000000     0.040180000000     0.045194   
H453     H      0.821200000000     0.038390000000     0.000320000000     0.0383787  
H454     H      0.612650000000     0.038490000000     0.965820000000     0.0448522  
H455     H      0.656900000000     0.963620000000     0.003740000000     0.0383647  
H456     H      0.657780000000     0.004050000000     0.962390000000     0.0384739  
H457     H      0.775360000000     0.032350000000     0.034650000000     0.0407409  
H458     H      0.821260000000     0.998740000000     0.041110000000     0.0433367  
H459     H      0.624250000000     0.006320000000     0.051510000000     0.0409482  
H460     H      0.841460000000     0.919800000000     0.011080000000     0.0638899  
H461     H      0.877430000000     0.930450000000     0.992150000000     0.0765219  
H462     H      0.840580000000     0.940900000000     0.974490000000     0.072679   
H463     H      0.203340000000     0.960270000000     0.014440000000     0.0403852  
H464     H      0.310260000000     0.954320000000     0.952110000000     0.0345057  
H465     H      0.306290000000     0.019170000000     0.026990000000     0.0410398  
H466     H      0.124530000000     0.001270000000     0.935990000000     0.040903   
H467     H      0.354800000000     0.941540000000     0.983960000000     0.0361496  
H468     H      0.174220000000     0.035460000000     0.015090000000     0.0343545  
H469     H      0.169020000000     0.967230000000     0.943340000000     0.0346738  
H470     H      0.116130000000     0.032810000000     0.022350000000     0.0444023  
H471     H      0.364880000000     0.025140000000     0.024540000000     0.0232678  
H472     H      0.259910000000     0.952290000000     0.020010000000     0.0425556  
H473     H      0.368810000000     0.960680000000     0.949440000000     0.0429361  
H474     H      0.220280000000     0.033660000000     0.947370000000     0.0445466  
H475     H      0.323200000000     0.994060000000     0.946350000000     0.0373064  
H476     H      0.110900000000     0.964100000000     0.949980000000     0.0447683  
H477     H      0.160070000000     0.996760000000     0.024260000000     0.0368089  
H478     H      0.156980000000     0.956990000000     0.982420000000     0.0376462  
H479     H      0.276890000000     0.025800000000     0.953100000000     0.0405817  
H480     H      0.321550000000     0.030990000000     0.989750000000     0.0428625  
H481     H      0.128050000000     0.047910000000     0.985070000000     0.0403169  
H482     H      0.340150000000     0.993180000000     0.065720000000     0.0627672  
H483     H      0.376870000000     0.976310000000     0.054180000000     0.0744517  
H484     H      0.340790000000     0.958990000000     0.040850000000     0.0719156  
H485     H      0.984100000000     0.950730000000     0.714270000000     0.0408273  
H486     H      0.022040000000     0.969180000000     0.813630000000     0.0346334  
H487     H      0.938940000000     0.023450000000     0.816630000000     0.0413158  
H488     H      0.004400000000     0.045080000000     0.633270000000     0.0418637  
H489     H      0.993560000000     0.950350000000     0.858510000000     0.0375865  
H490     H      0.941040000000     0.979150000000     0.673620000000     0.0344345  
H491     H      0.028680000000     0.025250000000     0.680240000000     0.0343388  
H492     H      0.948820000000     0.972440000000     0.615790000000     0.0450546  
H493     H      0.945670000000     0.028890000000     0.875460000000     0.0242178  
H494     H      0.980240000000     0.946790000000     0.770950000000     0.0424396  
H495     H      0.026790000000     0.972350000000     0.871700000000     0.0424569  
H496     H      0.984230000000     0.051540000000     0.721250000000     0.0440738  
H497     H      0.022760000000     0.008850000000     0.827880000000     0.0401926  
H498     H      0.036100000000     0.019770000000     0.622270000000     0.0430744  
H499     H      0.976470000000     0.958740000000     0.662820000000     0.0374586  
H500     H      0.026750000000     0.985250000000     0.667000000000     0.0387107  
H501     H      0.983570000000     0.047530000000     0.778110000000     0.040192   
H502     H      0.975430000000     0.039550000000     0.829940000000     0.0430283  
H503     H      0.943660000000     0.012130000000     0.628190000000     0.0400188  
H504     H      0.905720000000     0.993870000000     0.853020000000     0.0633661  
H505     H      0.921810000000     0.977240000000     0.888090000000     0.0743164  
H506     H      0.933670000000     0.962210000000     0.850510000000     0.0733881  
H507     H      0.004430000000     0.945680000000     0.278810000000     0.04043    
H508     H      0.959280000000     0.971020000000     0.180360000000     0.0344068  
H509     H      0.050600000000     0.009330000000     0.174110000000     0.0412897  
H510     H      0.989450000000     0.040880000000     0.358770000000     0.0398922  
H511     H      0.981360000000     0.948640000000     0.133570000000     0.0386643  
H512     H      0.051930000000     0.974780000000     0.317210000000     0.0343178  
H513     H      0.963690000000     0.019910000000     0.313180000000     0.033793   
H514     H      0.045870000000     0.968410000000     0.375590000000     0.0439559  
H515     H      0.042780000000     0.016820000000     0.115830000000     0.0253014  
H516     H      0.004550000000     0.940850000000     0.221920000000     0.04316    
H517     H      0.952420000000     0.976930000000     0.122450000000     0.0426394  
H518     H      0.009000000000     0.046220000000     0.270290000000     0.044026   
H519     H      0.964970000000     0.010570000000     0.166850000000     0.0394181  
H520     H      0.958490000000     0.015420000000     0.371330000000     0.0426749  
H521     H      0.017140000000     0.954180000000     0.329430000000     0.0366733  
H522     H      0.966600000000     0.980170000000     0.327070000000     0.0375772  
H523     H      0.006190000000     0.041480000000     0.213480000000     0.0408371  
H524     H      0.017220000000     0.032140000000     0.162580000000     0.0433622  
H525     H      0.051070000000     0.007890000000     0.362540000000     0.0402086  
H526     H      0.075850000000     0.974170000000     0.136140000000     0.0635112  
H527     H      0.055420000000     0.961700000000     0.101610000000     0.0749005  
H528     H      0.042340000000     0.948600000000     0.139500000000     0.0737364  
N1       N      0.486940000000     0.484440000000     0.875750000000    -0.170221   
N2       N      0.485570000000     0.479290000000     0.810010000000    -0.110202   
N3       N      0.505570000000     0.479470000000     0.677950000000    -0.113589   
N4       N      0.503260000000     0.484680000000     0.612280000000    -0.158573   
N5       N      0.490700000000     0.508180000000     0.110960000000    -0.170275   
N6       N      0.487900000000     0.512890000000     0.176670000000    -0.110314   
N7       N      0.488820000000     0.496990000000     0.309160000000    -0.1134     
N8       N      0.492550000000     0.498330000000     0.374800000000    -0.158717   
N9       N      0.496170000000     0.875270000000     0.489280000000    -0.170493   
N10      N      0.495680000000     0.809210000000     0.486330000000    -0.110455   
N11      N      0.477350000000     0.678120000000     0.504280000000    -0.113889   
N12      N      0.481830000000     0.612120000000     0.502140000000    -0.15803    
N13      N      0.509560000000     0.113280000000     0.500220000000    -0.170388   
N14      N      0.514190000000     0.179320000000     0.501100000000    -0.110508   
N15      N      0.498260000000     0.310280000000     0.480410000000    -0.113837   
N16      N      0.498320000000     0.376270000000     0.484360000000    -0.15837    
N17      N      0.493320000000     0.876530000000     0.997320000000    -0.170527   
N18      N      0.494440000000     0.810460000000     0.999930000000    -0.110739   
N19      N      0.514520000000     0.679730000000     0.981380000000    -0.114033   
N20      N      0.510380000000     0.613710000000     0.983260000000    -0.158904   
N21      N      0.477660000000     0.114610000000     0.987540000000    -0.170276   
N22      N      0.473670000000     0.180730000000     0.988000000000    -0.11054    
N23      N      0.491990000000     0.311070000000     0.010620000000    -0.113911   
N24      N      0.492950000000     0.377090000000     0.006510000000    -0.158866   
N25      N      0.493840000000     0.987990000000     0.611690000000    -0.170272   
N26      N      0.491240000000     0.984010000000     0.677420000000    -0.110435   
N27      N      0.505520000000     0.984860000000     0.810170000000    -0.113868   
N28      N      0.500890000000     0.989100000000     0.875740000000    -0.158578   
N29      N      0.482190000000     0.994090000000     0.111760000000    -0.171176   
N30      N      0.479900000000     0.992710000000     0.177470000000    -0.110672   
N31      N      0.498650000000     0.993450000000     0.309290000000    -0.113917   
N32      N      0.497900000000     0.994980000000     0.374920000000    -0.159437   
N33      N      0.877310000000     0.489750000000     0.488490000000    -0.170479   
N34      N      0.811390000000     0.489660000000     0.485550000000    -0.110153   
N35      N      0.679320000000     0.509650000000     0.486210000000    -0.113611   
N36      N      0.613500000000     0.506590000000     0.489110000000    -0.158464   
N37      N      0.377220000000     0.483230000000     0.493590000000    -0.170899   
N38      N      0.311340000000     0.481420000000     0.491600000000    -0.110359   
N39      N      0.180030000000     0.504470000000     0.487240000000    -0.113602   
N40      N      0.114180000000     0.504910000000     0.488540000000    -0.15904    
N41      N      0.613280000000     0.484050000000     0.993570000000    -0.170607   
N42      N      0.678550000000     0.476710000000     0.996840000000    -0.110246   
N43      N      0.811830000000     0.478310000000     0.987620000000    -0.113469   
N44      N      0.876880000000     0.486650000000     0.992350000000    -0.159644   
N45      N      0.377420000000     0.507110000000     0.996420000000    -0.170628   
N46      N      0.312290000000     0.514430000000     0.002500000000    -0.110294   
N47      N      0.178800000000     0.511820000000     0.997190000000    -0.113261   
N48      N      0.113880000000     0.503060000000     0.001970000000    -0.158692   
N49      N      0.000940000000     0.488370000000     0.613980000000    -0.169119   
N50      N      0.004840000000     0.484300000000     0.679630000000    -0.109761   
N51      N      0.004840000000     0.500710000000     0.812030000000    -0.113271   
N52      N      0.001060000000     0.498210000000     0.877660000000    -0.15752    
N53      N      0.987080000000     0.503270000000     0.113450000000    -0.169511   
N54      N      0.984040000000     0.507460000000     0.179250000000    -0.110572   
N55      N      0.001660000000     0.507660000000     0.311640000000    -0.1126     
N56      N      0.998810000000     0.503360000000     0.377380000000    -0.158194   
N57      N      0.988920000000     0.878150000000     0.492120000000    -0.170509   
N58      N      0.983820000000     0.812290000000     0.492100000000    -0.110574   
N59      N      0.982040000000     0.679940000000     0.511840000000    -0.114057   
N60      N      0.986160000000     0.614080000000     0.509240000000    -0.158605   
N61      N      0.007830000000     0.114430000000     0.489770000000    -0.170137   
N62      N      0.012020000000     0.180300000000     0.487830000000    -0.109686   
N63      N      0.009140000000     0.313280000000     0.502630000000    -0.11312    
N64      N      0.003070000000     0.378910000000     0.499210000000    -0.157375   
N65      N      0.879250000000     0.004780000000     0.497140000000    -0.170541   
N66      N      0.813240000000     0.007370000000     0.498760000000    -0.110557   
N67      N      0.682340000000     0.985950000000     0.484610000000    -0.114064   
N68      N      0.616410000000     0.987870000000     0.488030000000    -0.158947   
N69      N      0.379760000000     0.003510000000     0.489080000000    -0.169503   
N70      N      0.313620000000     0.005580000000     0.488800000000    -0.11049    
N71      N      0.183370000000     0.984620000000     0.509340000000    -0.11399    
N72      N      0.117310000000     0.986210000000     0.506900000000    -0.158831   
N73      N      0.993930000000     0.614830000000     0.985160000000    -0.171655   
N74      N      0.994900000000     0.680610000000     0.982550000000    -0.110879   
N75      N      0.995650000000     0.812620000000     0.001260000000    -0.113982   
N76      N      0.993820000000     0.878360000000     0.000350000000    -0.159332   
N77      N      0.996340000000     0.378000000000     0.990370000000    -0.171314   
N78      N      0.993270000000     0.312260000000     0.987990000000    -0.11078    
N79      N      0.987460000000     0.180120000000     0.005230000000    -0.114013   
N80      N      0.987280000000     0.114310000000     0.003690000000    -0.158866   
N81      N      0.870500000000     0.993400000000     0.996680000000    -0.1709     
N82      N      0.804470000000     0.991530000000     0.994650000000    -0.110644   
N83      N      0.673200000000     0.010640000000     0.009530000000    -0.113745   
N84      N      0.607290000000     0.007370000000     0.005120000000    -0.157567   
N85      N      0.371530000000     0.987450000000     0.992010000000    -0.170772   
N86      N      0.305590000000     0.983660000000     0.992000000000    -0.11093    
N87      N      0.174590000000     0.003570000000     0.976870000000    -0.113539   
N88      N      0.108820000000     0.002380000000     0.982810000000    -0.158173   
N89      N      0.981970000000     0.994290000000     0.878240000000    -0.170969   
N90      N      0.978070000000     0.992710000000     0.812520000000    -0.110479   
N91      N      0.982910000000     0.005560000000     0.679600000000    -0.113888   
N92      N      0.989910000000     0.001740000000     0.614260000000    -0.15803    
N93      N      0.000250000000     0.990130000000     0.114190000000    -0.168473   
N94      N      0.006680000000     0.986280000000     0.179710000000    -0.110007   
N95      N      0.009680000000     0.000780000000     0.312480000000    -0.112606   
N96      N      0.005220000000     0.998140000000     0.378130000000    -0.158455   
O1       O      0.990090000000     0.996380000000     0.996300000000    -0.369126   
O2       O      0.974170000000     0.978490000000     0.068960000000    -0.304245   
O3       O      0.063810000000     0.016700000000     0.008010000000    -0.305504   
O4       O      0.010690000000     0.924960000000     0.980330000000    -0.305637   
O5       O      0.015950000000     0.009160000000     0.066750000000    -0.30484    
O6       O      0.972230000000     0.924940000000     0.015080000000    -0.306405   
O7       O      0.061340000000     0.980720000000     0.971100000000    -0.306722   
O8       O      0.968430000000     0.015250000000     0.925570000000    -0.305849   
O9       O      0.008480000000     0.067070000000     0.016730000000    -0.304584   
O10      O      0.003300000000     0.976900000000     0.923990000000    -0.305504   
O11      O      0.969470000000     0.068470000000     0.982580000000    -0.304952   
O12      O      0.917050000000     0.013690000000     0.979830000000    -0.307212   
O13      O      0.917640000000     0.977480000000     0.016650000000    -0.307161   
O14      O      0.998610000000     0.996410000000     0.496360000000    -0.367685   
O15      O      0.982150000000     0.013290000000     0.423860000000    -0.306115   
O16      O      0.071050000000     0.972700000000     0.483510000000    -0.304864   
O17      O      0.022520000000     0.067470000000     0.511070000000    -0.304992   
O18      O      0.021650000000     0.979680000000     0.425600000000    -0.304964   
O19      O      0.984210000000     0.068400000000     0.476190000000    -0.309157   
O20      O      0.070840000000     0.009360000000     0.519920000000    -0.304832   
O21      O      0.976130000000     0.980590000000     0.567240000000    -0.305577   
O22      O      0.013220000000     0.923690000000     0.477860000000    -0.305825   
O23      O      0.013410000000     0.016630000000     0.568610000000    -0.302478   
O24      O      0.974330000000     0.925670000000     0.512050000000    -0.305715   
O25      O      0.925110000000     0.982890000000     0.513630000000    -0.309149   
O26      O      0.926760000000     0.018720000000     0.476530000000    -0.307778   
O27      O      0.995310000000     0.496570000000     0.995490000000    -0.369731   
O28      O      0.017530000000     0.425240000000     0.976600000000    -0.306761   
O29      O      0.977390000000     0.477860000000     0.067350000000    -0.306776   
O30      O      0.065200000000     0.518950000000     0.017340000000    -0.305881   
O31      O      0.979500000000     0.423950000000     0.011640000000    -0.308429   
O32      O      0.069360000000     0.480610000000     0.982830000000    -0.306522   
O33      O      0.005800000000     0.521320000000     0.066640000000    -0.304118   
O34      O      0.972580000000     0.567040000000     0.974100000000    -0.308325   
O35      O      0.924590000000     0.473110000000     0.012170000000    -0.307811   
O36      O      0.011920000000     0.569810000000     0.007520000000    -0.307389   
O37      O      0.921970000000     0.510420000000     0.976450000000    -0.307119   
O38      O      0.976650000000     0.510970000000     0.923400000000    -0.305184   
O39      O      0.019710000000     0.482040000000     0.925110000000    -0.303775   
O40      O      0.995780000000     0.496890000000     0.495860000000    -0.369858   
O41      O      0.978690000000     0.424590000000     0.512800000000    -0.30452    
O42      O      0.010410000000     0.478170000000     0.423090000000    -0.303047   
O43      O      0.924250000000     0.509850000000     0.472290000000    -0.305454   
O44      O      0.018700000000     0.426260000000     0.479850000000    -0.304095   
O45      O      0.923380000000     0.477430000000     0.512630000000    -0.307949   
O46      O      0.982790000000     0.522020000000     0.424930000000    -0.30384    
O47      O      0.011180000000     0.567850000000     0.519320000000    -0.302838   
O48      O      0.067540000000     0.484400000000     0.472090000000    -0.305095   
O49      O      0.971600000000     0.568210000000     0.485830000000    -0.304364   
O50      O      0.067880000000     0.517200000000     0.512060000000    -0.307076   
O51      O      0.017980000000     0.508680000000     0.567620000000    -0.306579   
O52      O      0.976810000000     0.477240000000     0.567560000000    -0.304906   
O53      O      0.489810000000     0.995910000000     0.993470000000    -0.367797   
O54      O      0.419430000000     0.974240000000     0.971830000000    -0.305838   
O55      O      0.469320000000     0.015910000000     0.064730000000    -0.307046   
O56      O      0.511930000000     0.924410000000     0.012640000000    -0.306477   
O57      O      0.416990000000     0.008560000000     0.010560000000    -0.308591   
O58      O      0.474290000000     0.922430000000     0.977320000000    -0.308216   
O59      O      0.502630000000     0.976280000000     0.065800000000    -0.308879   
O60      O      0.561170000000     0.020420000000     0.981110000000    -0.303108   
O61      O      0.464850000000     0.067020000000     0.008380000000    -0.308121   
O62      O      0.561020000000     0.983550000000     0.017570000000    -0.30521    
O63      O      0.502420000000     0.069260000000     0.972960000000    -0.304831   
O64      O      0.511940000000     0.012960000000     0.922300000000    -0.303275   
O65      O      0.478730000000     0.973100000000     0.921640000000    -0.305014   
O66      O      0.498070000000     0.994630000000     0.493500000000    -0.367566   
O67      O      0.427010000000     0.017820000000     0.510050000000    -0.304496   
O68      O      0.480930000000     0.975840000000     0.421750000000    -0.307526   
O69      O      0.521680000000     0.066040000000     0.478250000000    -0.308736   
O70      O      0.425760000000     0.980830000000     0.473760000000    -0.307885   
O71      O      0.485390000000     0.067690000000     0.515000000000    -0.305323   
O72      O      0.513770000000     0.015880000000     0.421430000000    -0.305608   
O73      O      0.569950000000     0.973870000000     0.510860000000    -0.304546   
O74      O      0.476440000000     0.922970000000     0.474830000000    -0.306323   
O75      O      0.569640000000     0.008190000000     0.472070000000    -0.306025   
O76      O      0.515360000000     0.921330000000     0.508780000000    -0.308137   
O77      O      0.513830000000     0.972190000000     0.564680000000    -0.306695   
O78      O      0.479670000000     0.011220000000     0.565670000000    -0.304647   
O79      O      0.495390000000     0.495720000000     0.993390000000    -0.368037   
O80      O      0.425330000000     0.522190000000     0.977750000000    -0.307757   
O81      O      0.473980000000     0.425730000000     0.019140000000    -0.304158   
O82      O      0.507170000000     0.468990000000     0.922840000000    -0.305318   
O83      O      0.422340000000     0.481680000000     0.009940000000    -0.307601   
O84      O      0.475910000000     0.510360000000     0.921200000000    -0.307067   
O85      O      0.509670000000     0.421510000000     0.982040000000    -0.308465   
O86      O      0.568600000000     0.507990000000     0.010260000000    -0.30733    
O87      O      0.472750000000     0.487110000000     0.065250000000    -0.307354   
O88      O      0.565100000000     0.470560000000     0.974610000000    -0.307216   
O89      O      0.515150000000     0.516920000000     0.064220000000    -0.305741   
O90      O      0.521680000000     0.566840000000     0.006640000000    -0.305255   
O91      O      0.485660000000     0.568220000000     0.969610000000    -0.306509   
O92      O      0.495510000000     0.494470000000     0.493840000000    -0.366678   
O93      O      0.422550000000     0.504490000000     0.475200000000    -0.307852   
O94      O      0.479870000000     0.421390000000     0.506220000000    -0.306906   
O95      O      0.514300000000     0.481140000000     0.420480000000    -0.305104   
O96      O      0.424760000000     0.472570000000     0.515860000000    -0.306494   
O97      O      0.474310000000     0.513870000000     0.422560000000    -0.305933   
O98      O      0.518000000000     0.424510000000     0.471300000000    -0.302621   
O99      O      0.566350000000     0.518070000000     0.511710000000    -0.302975   
O100     O      0.483820000000     0.468530000000     0.565180000000    -0.305522   
O101     O      0.567990000000     0.484100000000     0.472600000000    -0.305605   
O102     O      0.514140000000     0.510470000000     0.566730000000    -0.30458    
O103     O      0.506530000000     0.566650000000     0.515890000000    -0.304285   
O104     O      0.469220000000     0.564960000000     0.479970000000    -0.303832   
Zn1      Zn     0.963890000000     0.970550000000     0.023520000000     0.446676   
Zn2      Zn     0.018840000000     0.021430000000     0.021340000000     0.450644   
Zn3      Zn     0.015560000000     0.970340000000     0.968850000000     0.45097    
Zn4      Zn     0.962390000000     0.023040000000     0.971710000000     0.449038   
Zn5      Zn     0.973280000000     0.023090000000     0.469080000000     0.447155   
Zn6      Zn     0.025500000000     0.968960000000     0.471490000000     0.446773   
Zn7      Zn     0.025550000000     0.021840000000     0.523240000000     0.449105   
Zn8      Zn     0.969860000000     0.971680000000     0.521580000000     0.450632   
Zn9      Zn     0.024770000000     0.471680000000     0.970910000000     0.448957   
Zn10     Zn     0.970460000000     0.468760000000     0.021460000000     0.450294   
Zn11     Zn     0.018770000000     0.525620000000     0.021400000000     0.451542   
Zn12     Zn     0.967130000000     0.520480000000     0.968520000000     0.449293   
Zn13     Zn     0.969040000000     0.470180000000     0.521490000000     0.447412   
Zn14     Zn     0.022070000000     0.471870000000     0.468420000000     0.449529   
Zn15     Zn     0.969460000000     0.523650000000     0.470290000000     0.448052   
Zn16     Zn     0.022510000000     0.522020000000     0.522820000000     0.451845   
Zn17     Zn     0.466020000000     0.967600000000     0.966620000000     0.44732    
Zn18     Zn     0.461460000000     0.021290000000     0.018640000000     0.450142   
Zn19     Zn     0.515850000000     0.970650000000     0.021140000000     0.449636   
Zn20     Zn     0.515670000000     0.023960000000     0.968120000000     0.446388   
Zn21     Zn     0.473120000000     0.022190000000     0.520240000000     0.446294   
Zn22     Zn     0.470920000000     0.969170000000     0.467120000000     0.449125   
Zn23     Zn     0.524630000000     0.020550000000     0.466980000000     0.450904   
Zn24     Zn     0.523800000000     0.966650000000     0.518950000000     0.446589   
Zn25     Zn     0.471260000000     0.523470000000     0.966290000000     0.446922   
Zn26     Zn     0.467020000000     0.472730000000     0.020790000000     0.448417   
Zn27     Zn     0.518640000000     0.465440000000     0.968480000000     0.450059   
Zn28     Zn     0.524290000000     0.521050000000     0.018090000000     0.449425   
Zn29     Zn     0.466550000000     0.519040000000     0.468610000000     0.45066    
Zn30     Zn     0.471530000000     0.465530000000     0.519820000000     0.448353   
Zn31     Zn     0.523310000000     0.471450000000     0.465700000000     0.448687   
Zn32     Zn     0.519990000000     0.521700000000     0.521260000000     0.447431   


