data_structure

_audit_creation_method RASPA-1.0
_audit_creation_date 2023-5-25
_audit_author_name 'Poobodin Mano'

_cell_length_a    42.5654
_cell_length_b    42.6991
_cell_length_c    42.7902
_cell_angle_alpha 90
_cell_angle_beta  90
_cell_angle_gamma 90
_cell_volume      77771.4

_symmetry_cell_setting          triclinic
_symmetry_space_group_name_Hall 'P 1'
_symmetry_space_group_name_H-M  'P 1'
_symmetry_Int_Tables_number     1

_symmetry_equiv_pos_as_xyz 'x,y,z'

loop_
_atom_site_label
_atom_site_type_symbol
_atom_site_fract_x
_atom_site_fract_y
_atom_site_fract_z
_atom_site_charge
C1       C      0.005930000000     0.074380000000     0.985600000000     0.385918   
C2       C      0.988260000000     0.989850000000     0.073570000000     0.381411   
C3       C      0.909960000000     0.993230000000     0.981120000000     0.362075   
C4       C      0.989300000000     0.900530000000     0.985640000000     0.363979   
C5       C      0.082320000000     0.978080000000     0.995160000000     0.379759   
C6       C      0.001640000000     0.988400000000     0.900180000000     0.383816   
C7       C      0.991790000000     0.988900000000     0.400010000000     0.362758   
C8       C      0.088270000000     0.993890000000     0.477830000000     0.362066   
C9       C      0.009110000000     0.082190000000     0.481270000000     0.383225   
C10      C      0.006270000000     0.996690000000     0.572370000000     0.361483   
C11      C      0.000620000000     0.908110000000     0.490590000000     0.362664   
C12      C      0.915750000000     0.003380000000     0.492880000000     0.362289   
C13      C      0.992980000000     0.486320000000     0.906110000000     0.361334   
C14      C      0.907480000000     0.476050000000     0.991250000000     0.36219    
C15      C      0.006860000000     0.401510000000     0.995110000000     0.362178   
C16      C      0.994800000000     0.484880000000     0.080640000000     0.363214   
C17      C      0.981150000000     0.573370000000     0.996250000000     0.383222   
C18      C      0.079590000000     0.501860000000     0.990750000000     0.360212   
C19      C      0.987940000000     0.406930000000     0.498390000000     0.36186    
C20      C      0.903910000000     0.490930000000     0.500630000000     0.365127   
C21      C      0.998740000000     0.500650000000     0.580320000000     0.378969   
C22      C      0.989380000000     0.580740000000     0.490210000000     0.384615   
C23      C      0.985480000000     0.493910000000     0.407300000000     0.382135   
C24      C      0.077330000000     0.488720000000     0.487510000000     0.363064   
C25      C      0.409420000000     0.998440000000     0.987050000000     0.359228   
C26      C      0.496090000000     0.004880000000     0.073910000000     0.389759   
C27      C      0.501810000000     0.916090000000     0.987070000000     0.362904   
C28      C      0.583090000000     0.010780000000     0.992410000000     0.383431   
C29      C      0.489070000000     0.088940000000     0.981360000000     0.36508    
C30      C      0.500920000000     0.998270000000     0.900650000000     0.381542   
C31      C      0.414910000000     0.981850000000     0.486380000000     0.383288   
C32      C      0.501960000000     0.995330000000     0.400790000000     0.366113   
C33      C      0.492380000000     0.078480000000     0.491110000000     0.380534   
C34      C      0.588330000000     0.997940000000     0.485020000000     0.383155   
C35      C      0.509580000000     0.904930000000     0.485380000000     0.384483   
C36      C      0.501840000000     0.989170000000     0.573880000000     0.362193   
C37      C      0.491780000000     0.506020000000     0.918120000000     0.361256   
C38      C      0.499430000000     0.588670000000     0.005980000000     0.381702   
C39      C      0.406680000000     0.504790000000     0.008390000000     0.381595   
C40      C      0.495010000000     0.501900000000     0.092620000000     0.366418   
C41      C      0.580620000000     0.495870000000     0.005990000000     0.38205    
C42      C      0.488800000000     0.415530000000     0.001840000000     0.382379   
C43      C      0.483670000000     0.488830000000     0.418830000000     0.381563   
C44      C      0.403420000000     0.495430000000     0.510280000000     0.383528   
C45      C      0.492130000000     0.405590000000     0.508330000000     0.362516   
C46      C      0.496850000000     0.490060000000     0.592100000000     0.381846   
C47      C      0.489010000000     0.579760000000     0.507140000000     0.366116   
C48      C      0.576720000000     0.497520000000     0.497100000000     0.383402   
C49      C      0.474880000000     0.476770000000     0.674980000000    -0.0330126  
C50      C      0.517880000000     0.519000000000     0.836180000000    -0.0287063  
C51      C      0.463250000000     0.494450000000     0.869220000000    -0.0105391  
C52      C      0.510750000000     0.530520000000     0.869310000000    -0.0104923  
C53      C      0.512470000000     0.480080000000     0.776540000000    -0.0537167  
C54      C      0.480680000000     0.517900000000     0.733510000000    -0.0544361  
C55      C      0.493040000000     0.504500000000     0.787330000000     0.0635828  
C56      C      0.472650000000     0.484470000000     0.836200000000    -0.0284266  
C57      C      0.500190000000     0.493560000000     0.722720000000     0.0655652  
C58      C      0.518170000000     0.513660000000     0.672840000000    -0.109818   
C59      C      0.515980000000     0.474780000000     0.744490000000    -0.0488034  
C60      C      0.526960000000     0.503600000000     0.639620000000     0.321855   
C61      C      0.481620000000     0.464950000000     0.641890000000     0.00684762 
C62      C      0.477240000000     0.523270000000     0.765560000000    -0.0509362  
C63      C      0.504460000000     0.470250000000     0.336730000000    -0.0329623  
C64      C      0.471510000000     0.518240000000     0.174910000000    -0.0285201  
C65      C      0.519380000000     0.482730000000     0.141360000000    -0.0104985  
C66      C      0.480980000000     0.528430000000     0.141940000000    -0.00946237 
C67      C      0.511370000000     0.514340000000     0.245350000000    -0.0502132  
C68      C      0.464210000000     0.473900000000     0.266340000000    -0.0473535  
C69      C      0.492700000000     0.498460000000     0.223530000000     0.065229   
C70      C      0.508080000000     0.474760000000     0.174370000000    -0.02778    
C71      C      0.482910000000     0.489740000000     0.288150000000     0.0659489  
C72      C      0.467230000000     0.513280000000     0.337290000000    -0.109843   
C73      C      0.506600000000     0.510100000000     0.277400000000    -0.0533558  
C74      C      0.456420000000     0.505340000000     0.370500000000     0.321922   
C75      C      0.495420000000     0.460340000000     0.369900000000     0.00694867 
C76      C      0.468960000000     0.478160000000     0.234280000000    -0.0533281  
C77      C      0.487520000000     0.822420000000     0.470720000000    -0.0327383  
C78      C      0.514740000000     0.661110000000     0.523500000000    -0.0288805  
C79      C      0.464650000000     0.629250000000     0.489560000000    -0.010409   
C80      C      0.503990000000     0.628650000000     0.534180000000    -0.00908994 
C81      C      0.478040000000     0.733470000000     0.518760000000    -0.0503895  
C82      C      0.525480000000     0.751340000000     0.477200000000    -0.0472616  
C83      C      0.495550000000     0.710430000000     0.503290000000     0.0651872  
C84      C      0.477140000000     0.661700000000     0.480870000000    -0.0280523  
C85      C      0.507870000000     0.774390000000     0.492550000000     0.0664161  
C86      C      0.524750000000     0.824340000000     0.513670000000    -0.109902   
C87      C      0.484060000000     0.765220000000     0.513500000000    -0.0536535  
C88      C      0.536210000000     0.856980000000     0.504120000000     0.322542   
C89      C      0.497350000000     0.854840000000     0.459160000000     0.00698779 
C90      C      0.519460000000     0.719600000000     0.482460000000    -0.0530143  
C91      C      0.511260000000     0.162960000000     0.480400000000    -0.0326216  
C92      C      0.467440000000     0.323370000000     0.524130000000    -0.0287835  
C93      C      0.519400000000     0.356510000000     0.494410000000    -0.00979295 
C94      C      0.475160000000     0.356840000000     0.534390000000    -0.00987884 
C95      C      0.508900000000     0.253120000000     0.526810000000    -0.0513509  
C96      C      0.467380000000     0.230510000000     0.481480000000    -0.0485576  
C97      C      0.491550000000     0.274350000000     0.508770000000     0.0636054  
C98      C      0.509550000000     0.323080000000     0.486030000000    -0.0288109  
C99      C      0.484930000000     0.209290000000     0.499330000000     0.0655378  
C100     C      0.470820000000     0.158140000000     0.519920000000    -0.109327   
C101     C      0.505720000000     0.220860000000     0.522200000000    -0.0545118  
C102     C      0.462800000000     0.124610000000     0.509840000000     0.321247   
C103     C      0.505240000000     0.129870000000     0.468190000000     0.00563759 
C104     C      0.470580000000     0.262780000000     0.486070000000    -0.0537424  
C105     C      0.483470000000     0.672770000000     0.024780000000    -0.0321173  
C106     C      0.514000000000     0.835100000000     0.016220000000    -0.0286343  
C107     C      0.493660000000     0.866250000000     0.959040000000    -0.0120183  
C108     C      0.524970000000     0.868530000000     0.009850000000    -0.0094897  
C109     C      0.479980000000     0.768820000000     0.993770000000    -0.0523046  
C110     C      0.536490000000     0.736010000000     0.999460000000    -0.0502691  
C111     C      0.508740000000     0.784970000000     0.990770000000     0.0639145  
C112     C      0.485350000000     0.832400000000     0.967450000000    -0.0274497  
C113     C      0.508030000000     0.719710000000     0.001820000000     0.0677579  
C114     C      0.512680000000     0.669410000000     0.976400000000    -0.111776   
C115     C      0.479640000000     0.736370000000     0.998280000000    -0.0545211  
C116     C      0.523120000000     0.635830000000     0.982990000000     0.323434   
C117     C      0.491050000000     0.638790000000     0.033390000000     0.00584034 
C118     C      0.536850000000     0.768140000000     0.993640000000    -0.0493296  
C119     C      0.503430000000     0.330590000000     0.018350000000    -0.0322416  
C120     C      0.474870000000     0.170520000000     0.006720000000    -0.0289742  
C121     C      0.495340000000     0.137570000000     0.950610000000    -0.00937565 
C122     C      0.464170000000     0.136860000000     0.001430000000    -0.00864103 
C123     C      0.508780000000     0.235660000000     0.984560000000    -0.0523256  
C124     C      0.452260000000     0.268850000000     0.987300000000    -0.0502633  
C125     C      0.480120000000     0.219770000000     0.979920000000     0.0636294  
C126     C      0.503450000000     0.171800000000     0.957780000000    -0.0290743  
C127     C      0.480650000000     0.284840000000     0.991670000000     0.0674558  
C128     C      0.478990000000     0.336010000000     0.967620000000    -0.111814   
C129     C      0.509090000000     0.268050000000     0.989430000000    -0.0543147  
C130     C      0.468120000000     0.369400000000     0.974420000000     0.32334    
C131     C      0.495300000000     0.364290000000     0.027540000000     0.00569487 
C132     C      0.452010000000     0.236780000000     0.981180000000    -0.0500258  
C133     C      0.528160000000     0.011140000000     0.818410000000    -0.0325899  
C134     C      0.530800000000     0.982780000000     0.655860000000    -0.0290137  
C135     C      0.472020000000     0.994700000000     0.622820000000    -0.0128745  
C136     C      0.527320000000     0.971260000000     0.622240000000    -0.00958758 
C137     C      0.503250000000     0.013270000000     0.720490000000    -0.0529165  
C138     C      0.508850000000     0.957700000000     0.754560000000    -0.049908   
C139     C      0.502610000000     0.984260000000     0.704780000000     0.0636806  
C140     C      0.478160000000     0.004120000000     0.656730000000    -0.0263807  
C141     C      0.508580000000     0.986400000000     0.770410000000     0.0661748  
C142     C      0.477970000000     0.984600000000     0.817810000000    -0.11264    
C143     C      0.505240000000     0.014280000000     0.753090000000    -0.0542457  
C144     C      0.480600000000     0.975160000000     0.852120000000     0.323416   
C145     C      0.533080000000     0.004360000000     0.853190000000     0.00690621 
C146     C      0.505650000000     0.956630000000     0.722140000000    -0.0501449  
C147     C      0.507140000000     0.979680000000     0.156690000000    -0.0332304  
C148     C      0.485970000000     0.975020000000     0.317160000000    -0.0276702  
C149     C      0.518920000000     0.022860000000     0.353300000000    -0.0097877  
C150     C      0.495570000000     0.967650000000     0.350790000000    -0.0104143  
C151     C      0.533520000000     0.005100000000     0.252880000000    -0.0500692  
C152     C      0.475820000000     0.004850000000     0.221680000000    -0.0530212  
C153     C      0.505790000000     0.001100000000     0.270010000000     0.0656818  
C154     C      0.507080000000     0.027530000000     0.319940000000    -0.0275279  
C155     C      0.503820000000     0.009030000000     0.204590000000     0.0679416  
C156     C      0.478630000000     0.028570000000     0.156620000000    -0.109413   
C157     C      0.532530000000     0.009290000000     0.220580000000    -0.0476119  
C158     C      0.485850000000     0.034670000000     0.122080000000     0.32189    
C159     C      0.517180000000     0.983360000000     0.122700000000     0.00526265 
C160     C      0.476730000000     0.001860000000     0.254210000000    -0.0524646  
C161     C      0.658510000000     0.475580000000     0.477560000000    -0.0326538  
C162     C      0.821940000000     0.514090000000     0.518920000000    -0.0293478  
C163     C      0.854830000000     0.463120000000     0.487530000000    -0.00872217 
C164     C      0.855500000000     0.505870000000     0.528810000000    -0.00884474 
C165     C      0.751280000000     0.473540000000     0.520230000000    -0.0505668  
C166     C      0.729130000000     0.516420000000     0.476000000000    -0.0475207  
C167     C      0.772740000000     0.490950000000     0.502520000000     0.0645307  
C168     C      0.821430000000     0.473340000000     0.479380000000    -0.0292195  
C169     C      0.707670000000     0.498980000000     0.493680000000     0.0665127  
C170     C      0.659000000000     0.516820000000     0.516660000000    -0.110562   
C171     C      0.718990000000     0.477470000000     0.515940000000    -0.0542397  
C172     C      0.625470000000     0.526730000000     0.508580000000     0.322712   
C173     C      0.624830000000     0.483520000000     0.467850000000     0.00721541 
C174     C      0.761430000000     0.512510000000     0.480300000000    -0.052918   
C175     C      0.320800000000     0.471330000000     0.523570000000    -0.0329267  
C176     C      0.159910000000     0.511180000000     0.473000000000    -0.0291887  
C177     C      0.125390000000     0.458710000000     0.499770000000    -0.00963287 
C178     C      0.126880000000     0.503530000000     0.461020000000    -0.00966427 
C179     C      0.230780000000     0.470400000000     0.474700000000    -0.0505029  
C180     C      0.249750000000     0.511650000000     0.521830000000    -0.0485735  
C181     C      0.208120000000     0.487310000000     0.491380000000     0.0639944  
C182     C      0.158220000000     0.468360000000     0.510410000000    -0.0288321  
C183     C      0.272410000000     0.494790000000     0.505120000000     0.0662025  
C184     C      0.322200000000     0.513660000000     0.485720000000    -0.110829   
C185     C      0.262690000000     0.474040000000     0.481420000000    -0.0542748  
C186     C      0.354950000000     0.523820000000     0.496210000000     0.322825   
C187     C      0.353720000000     0.479340000000     0.535600000000     0.00754123 
C188     C      0.217840000000     0.507990000000     0.515130000000    -0.0535106  
C189     C      0.664440000000     0.505210000000     0.982100000000    -0.0318428  
C190     C      0.826710000000     0.456490000000     0.017050000000    -0.0294467  
C191     C      0.857310000000     0.487590000000     0.964600000000    -0.00931205 
C192     C      0.860000000000     0.446700000000     0.007460000000    -0.00914081 
C193     C      0.754000000000     0.456550000000     0.978840000000    -0.0509635  
C194     C      0.734270000000     0.500820000000     0.022800000000    -0.0479023  
C195     C      0.776450000000     0.473170000000     0.996110000000     0.0635975  
C196     C      0.824390000000     0.495870000000     0.976160000000    -0.0292165  
C197     C      0.711830000000     0.484420000000     0.005330000000     0.0666106  
C198     C      0.660960000000     0.464320000000     0.021130000000    -0.10994    
C199     C      0.721940000000     0.462050000000     0.983330000000    -0.054799   
C200     C      0.628160000000     0.474820000000     0.031410000000     0.322097   
C201     C      0.631810000000     0.517830000000     0.990200000000     0.00456541 
C202     C      0.766320000000     0.495350000000     0.018290000000    -0.0527997  
C203     C      0.323750000000     0.489520000000     0.985490000000    -0.0317948  
C204     C      0.158550000000     0.526950000000     0.016800000000    -0.0289026  
C205     C      0.130630000000     0.493160000000     0.964500000000    -0.0101293  
C206     C      0.124910000000     0.534490000000     0.006620000000    -0.0100519  
C207     C      0.231540000000     0.531930000000     0.980230000000    -0.0510662  
C208     C      0.253570000000     0.489430000000     0.024850000000    -0.0486255  
C209     C      0.210050000000     0.513490000000     0.996850000000     0.0632305  
C210     C      0.163990000000     0.487310000000     0.976450000000    -0.0289259  
C211     C      0.275080000000     0.507630000000     0.008010000000     0.0662706  
C212     C      0.324570000000     0.531100000000     0.023980000000    -0.109152   
C213     C      0.263810000000     0.529090000000     0.985660000000    -0.0548664  
C214     C      0.358050000000     0.522820000000     0.034340000000     0.32145    
C215     C      0.356960000000     0.478980000000     0.993980000000     0.00448184 
C216     C      0.221320000000     0.492240000000     0.019400000000    -0.0531609  
C217     C      0.019650000000     0.478890000000     0.661290000000    -0.0322787  
C218     C      0.975960000000     0.510660000000     0.824320000000    -0.0289509  
C219     C      0.011000000000     0.461900000000     0.856960000000    -0.00904192 
C220     C      0.965930000000     0.501070000000     0.857280000000    -0.0100241  
C221     C      0.977540000000     0.472090000000     0.753510000000    -0.0510491  
C222     C      0.019360000000     0.517970000000     0.732430000000    -0.049764   
C223     C      0.994660000000     0.489680000000     0.775270000000     0.0622029  
C224     C      0.018800000000     0.473280000000     0.823940000000    -0.0287757  
C225     C      0.002300000000     0.500330000000     0.710670000000     0.0661977  
C226     C      0.978260000000     0.518030000000     0.662480000000    -0.109812   
C227     C      0.981220000000     0.477310000000     0.721470000000    -0.0558932  
C228     C      0.985830000000     0.528870000000     0.629190000000     0.320738   
C229     C      0.029030000000     0.487980000000     0.628000000000     0.00625531 
C230     C      0.015610000000     0.512810000000     0.764490000000    -0.0528219  
C231     C      0.968060000000     0.468790000000     0.325730000000    -0.0325966  
C232     C      0.009310000000     0.508430000000     0.163250000000    -0.0282779  
C233     C      0.979270000000     0.457510000000     0.129030000000    -0.00912903 
C234     C      0.020150000000     0.501010000000     0.129970000000    -0.00885621 
C235     C      0.010580000000     0.466760000000     0.232850000000    -0.0504964  
C236     C      0.965730000000     0.509070000000     0.255140000000    -0.0476345  
C237     C      0.992620000000     0.484100000000     0.211560000000     0.0634099  
C238     C      0.970330000000     0.467090000000     0.162310000000    -0.0292431  
C239     C      0.983810000000     0.491850000000     0.276430000000     0.0653919  
C240     C      0.007360000000     0.509840000000     0.324680000000    -0.108869   
C241     C      0.006290000000     0.470510000000     0.265030000000    -0.0538663  
C242     C      0.999370000000     0.520340000000     0.357920000000     0.320713   
C243     C      0.958220000000     0.477120000000     0.359150000000     0.00626663 
C244     C      0.969990000000     0.505280000000     0.222960000000    -0.0530963  
C245     C      0.014160000000     0.662730000000     0.473510000000    -0.0318035  
C246     C      0.974470000000     0.826780000000     0.508490000000    -0.0296026  
C247     C      0.027140000000     0.858260000000     0.478250000000    -0.0099113  
C248     C      0.982550000000     0.860430000000     0.517820000000    -0.00989078 
C249     C      0.014620000000     0.756180000000     0.513950000000    -0.0493054  
C250     C      0.973280000000     0.732750000000     0.468860000000    -0.0482387  
C251     C      0.998040000000     0.777040000000     0.494810000000     0.0625965  
C252     C      0.016880000000     0.824790000000     0.470750000000    -0.0282968  
C253     C      0.989920000000     0.711880000000     0.487940000000     0.0667097  
C254     C      0.971890000000     0.663500000000     0.511420000000    -0.110103   
C255     C      0.010660000000     0.723850000000     0.510630000000    -0.0540391  
C256     C      0.962060000000     0.629950000000     0.503470000000     0.322863   
C257     C      0.006580000000     0.629120000000     0.463700000000     0.00688012 
C258     C      0.977230000000     0.765070000000     0.472180000000    -0.0523169  
C259     C      0.025040000000     0.163330000000     0.506490000000    -0.0324487  
C260     C      0.975320000000     0.324880000000     0.473640000000    -0.0290363  
C261     C      0.002460000000     0.358450000000     0.526460000000    -0.00885135 
C262     C      0.962800000000     0.357320000000     0.482220000000    -0.0100777  
C263     C      0.017950000000     0.267370000000     0.474940000000    -0.0528785  
C264     C      0.983190000000     0.221640000000     0.506520000000    -0.0560987  
C265     C      0.994220000000     0.276450000000     0.496030000000     0.0622212  
C266     C      0.013320000000     0.325970000000     0.515970000000    -0.0287676  
C267     C      0.006770000000     0.212560000000     0.485270000000     0.0663011  
C268     C      0.986470000000     0.163870000000     0.464610000000    -0.110139   
C269     C      0.024070000000     0.235660000000     0.469670000000    -0.0498178  
C270     C      0.996400000000     0.131320000000     0.453420000000     0.321027   
C271     C      0.036590000000     0.130710000000     0.497140000000     0.00670077 
C272     C      0.977040000000     0.253350000000     0.511760000000    -0.0512291  
C273     C      0.671940000000     0.983710000000     0.506290000000    -0.0324252  
C274     C      0.834730000000     0.026500000000     0.472020000000    -0.0289709  
C275     C      0.866410000000     0.990260000000     0.520430000000    -0.0104354  
C276     C      0.868420000000     0.034740000000     0.481210000000    -0.00987352 
C277     C      0.763620000000     0.026990000000     0.511430000000    -0.0511268  
C278     C      0.741000000000     0.986590000000     0.465170000000    -0.0487549  
C279     C      0.784880000000     0.009850000000     0.493220000000     0.0640901  
C280     C      0.832710000000     0.983980000000     0.509680000000    -0.0293356  
C281     C      0.719740000000     0.003540000000     0.483540000000     0.0674946  
C282     C      0.669650000000     0.027140000000     0.469970000000    -0.109283   
C283     C      0.731280000000     0.023910000000     0.506730000000    -0.0549753  
C284     C      0.636110000000     0.018890000000     0.459860000000     0.322104   
C285     C      0.638780000000     0.973010000000     0.497970000000     0.00498976 
C286     C      0.773320000000     0.989650000000     0.469870000000    -0.0532324  
C287     C      0.334680000000     0.963260000000     0.457840000000    -0.0330055  
C288     C      0.172310000000     0.005660000000     0.497160000000    -0.0278434  
C289     C      0.134850000000     0.977810000000     0.447360000000    -0.0100903  
C290     C      0.139260000000     0.018070000000     0.490870000000    -0.0100475  
C291     C      0.240980000000     0.005110000000     0.455020000000    -0.0502045  
C292     C      0.262140000000     0.958490000000     0.495810000000    -0.0488321  
C293     C      0.219140000000     0.986980000000     0.471500000000     0.0634547  
C294     C      0.168190000000     0.967250000000     0.455560000000    -0.0286427  
C295     C      0.283990000000     0.976930000000     0.479690000000     0.0656256  
C296     C      0.331120000000     0.999870000000     0.501090000000    -0.111793   
C297     C      0.273170000000     0.000220000000     0.459030000000    -0.0539765  
C298     C      0.364190000000     0.991850000000     0.512400000000     0.322537   
C299     C      0.368090000000     0.953670000000     0.466970000000     0.0073038  
C300     C      0.229950000000     0.963400000000     0.491830000000    -0.0535819  
C301     C      0.968550000000     0.654240000000     0.968050000000    -0.033321   
C302     C      0.002400000000     0.816440000000     0.964110000000    -0.0275522  
C303     C      0.964460000000     0.853370000000     0.007380000000    -0.00864901 
C304     C      0.996330000000     0.851040000000     0.956820000000    -0.0110511  
C305     C      0.946880000000     0.754280000000     0.985830000000    -0.0509297  
C306     C      0.002020000000     0.719460000000     0.992730000000    -0.0515481  
C307     C      0.975930000000     0.769700000000     0.985150000000     0.0639619  
C308     C      0.973290000000     0.819090000000     0.012560000000    -0.0290133  
C309     C      0.972670000000     0.704200000000     0.994220000000     0.0656254  
C310     C      0.992790000000     0.656330000000     0.019300000000    -0.109976   
C311     C      0.945250000000     0.721990000000     0.990610000000    -0.0480798  
C312     C      0.983310000000     0.622540000000     0.026660000000     0.320877   
C313     C      0.957180000000     0.620650000000     0.973240000000     0.00685379 
C314     C      0.003600000000     0.751990000000     0.989200000000    -0.0523609  
C315     C      0.021410000000     0.155690000000     0.012380000000    -0.0330199  
C316     C      0.995390000000     0.318110000000     0.016960000000    -0.0299216  
C317     C      0.033680000000     0.354900000000     0.973960000000    -0.00917224 
C318     C      0.003110000000     0.352160000000     0.024920000000    -0.00887189 
C319     C      0.047200000000     0.253890000000     0.992650000000    -0.0516443  
C320     C      0.990080000000     0.222090000000     0.987130000000    -0.0534699  
C321     C      0.019050000000     0.270850000000     0.994050000000     0.0640254  
C322     C      0.023900000000     0.320930000000     0.967970000000    -0.0292429  
C323     C      0.018500000000     0.205200000000     0.985240000000     0.0664901  
C324     C      0.994570000000     0.157830000000     0.962550000000    -0.110405   
C325     C      0.046940000000     0.221530000000     0.987990000000    -0.0490959  
C326     C      0.001950000000     0.123460000000     0.955440000000     0.322315   
C327     C      0.030980000000     0.121520000000     0.007500000000     0.00728943 
C328     C      0.990390000000     0.254670000000     0.990500000000    -0.0536596  
C329     C      0.664310000000     0.031190000000     0.969540000000    -0.0324885  
C330     C      0.826020000000     0.981580000000     0.002090000000    -0.0283083  
C331     C      0.862840000000     0.014640000000     0.955010000000    -0.0105854  
C332     C      0.858680000000     0.969460000000     0.993570000000    -0.010134   
C333     C      0.756490000000     0.987370000000     0.961820000000    -0.0510476  
C334     C      0.736450000000     0.029400000000     0.007800000000    -0.0475539  
C335     C      0.778810000000     0.003420000000     0.979750000000     0.0654302  
C336     C      0.829780000000     0.024480000000     0.965200000000    -0.0276245  
C337     C      0.714120000000     0.013140000000     0.990040000000     0.0664254  
C338     C      0.665750000000     0.989540000000     0.008190000000    -0.109895   
C339     C      0.724390000000     0.992100000000     0.966840000000    -0.0543258  
C340     C      0.632560000000     0.997270000000     0.019620000000     0.321845   
C341     C      0.631060000000     0.040730000000     0.979260000000     0.00678882 
C342     C      0.768550000000     0.024630000000     0.002800000000    -0.0530961  
C343     C      0.163930000000     0.998840000000     0.015560000000    -0.0334549  
C344     C      0.328180000000     0.969060000000     0.972020000000    -0.0285723  
C345     C      0.358960000000     0.020590000000     0.004720000000    -0.0100495  
C346     C      0.361080000000     0.979200000000     0.961800000000    -0.0105347  
C347     C      0.267610000000     0.966530000000     0.010320000000    -0.0537137  
C348     C      0.223720000000     0.000980000000     0.975860000000    -0.0540539  
C349     C      0.278020000000     0.989510000000     0.989100000000     0.0630615  
C350     C      0.326170000000     0.008330000000     0.012770000000    -0.0278076  
C351     C      0.213290000000     0.977980000000     0.997050000000     0.0648573  
C352     C      0.164480000000     0.960590000000     0.973510000000    -0.109785   
C353     C      0.235490000000     0.960880000000     0.014170000000    -0.0488386  
C354     C      0.131100000000     0.949670000000     0.981300000000     0.321798   
C355     C      0.130640000000     0.989480000000     0.025220000000     0.00669747 
C356     C      0.255830000000     0.006590000000     0.971970000000    -0.0505417  
C357     C      0.023390000000     0.967860000000     0.817410000000    -0.0324719  
C358     C      0.997680000000     0.969880000000     0.655070000000    -0.0304149  
C359     C      0.020440000000     0.024440000000     0.620800000000    -0.00977263 
C360     C      0.986650000000     0.974640000000     0.621510000000    -0.00912015 
C361     C      0.031080000000     0.994620000000     0.720370000000    -0.0523639  
C362     C      0.973630000000     0.993700000000     0.751990000000    -0.0513327  
C363     C      0.002880000000     0.998330000000     0.703460000000     0.0634463  
C364     C      0.028080000000     0.017570000000     0.655150000000    -0.0288195  
C365     C      0.001550000000     0.990470000000     0.769020000000     0.0684019  
C366     C      0.997320000000     0.018070000000     0.818190000000    -0.112281   
C367     C      0.030460000000     0.991660000000     0.752960000000    -0.0549133  
C368     C      0.984800000000     0.013250000000     0.851270000000     0.323336   
C369     C      0.014050000000     0.960680000000     0.851260000000     0.00682513 
C370     C      0.974310000000     0.997930000000     0.719700000000    -0.0508339  
C371     C      0.002800000000     0.011900000000     0.156620000000    -0.0306647  
C372     C      0.976860000000     0.012170000000     0.317970000000    -0.0292127  
C373     C      0.993980000000     0.955910000000     0.352640000000    -0.0113939  
C374     C      0.966940000000     0.009100000000     0.352130000000    -0.00910669 
C375     C      0.007240000000     0.983720000000     0.253060000000    -0.0516352  
C376     C      0.950350000000     0.990040000000     0.221070000000    -0.0499101  
C377     C      0.978730000000     0.982910000000     0.269840000000     0.0630736  
C378     C      0.001630000000     0.961090000000     0.318060000000    -0.0275656  
C379     C      0.978570000000     0.990480000000     0.204230000000     0.0665066  
C380     C      0.973120000000     0.963530000000     0.154820000000    -0.111432   
C381     C      0.007110000000     0.986490000000     0.220500000000    -0.0536714  
C382     C      0.962930000000     0.969190000000     0.121020000000     0.323391   
C383     C      0.995090000000     0.019560000000     0.122550000000     0.00534824 
C384     C      0.950410000000     0.985980000000     0.253420000000    -0.0495199  
F1       F      0.552190000000     0.483180000000     0.640980000000    -0.431559   
F2       F      0.428480000000     0.488790000000     0.368970000000    -0.430552   
F3       F      0.564100000000     0.854080000000     0.487720000000    -0.427922   
F4       F      0.435730000000     0.125100000000     0.491900000000    -0.430399   
F5       F      0.553640000000     0.636100000000     0.994200000000    -0.42777    
F6       F      0.436580000000     0.368990000000     0.982360000000    -0.429393   
F7       F      0.489830000000     0.944110000000     0.853990000000    -0.431589   
F8       F      0.508430000000     0.057920000000     0.119930000000    -0.424909   
F9       F      0.626510000000     0.552570000000     0.489040000000    -0.429861   
F10      F      0.352220000000     0.549110000000     0.516290000000    -0.43133    
F11      F      0.630650000000     0.491740000000     0.058900000000    -0.427844   
F12      F      0.356670000000     0.506070000000     0.062020000000    -0.428463   
F13      F      0.004070000000     0.555680000000     0.630590000000    -0.430937   
F14      F      0.980480000000     0.546710000000     0.356510000000    -0.42627    
F15      F      0.936010000000     0.630810000000     0.484100000000    -0.424953   
F16      F      0.016530000000     0.134460000000     0.428190000000    -0.431753   
F17      F      0.637140000000     0.003860000000     0.431200000000    -0.427208   
F18      F      0.362120000000     0.971030000000     0.537130000000    -0.43147    
F19      F      0.957120000000     0.622850000000     0.045860000000    -0.430211   
F20      F      0.026560000000     0.122100000000     0.934320000000    -0.431368   
F21      F      0.634580000000     0.015190000000     0.046510000000    -0.425232   
F22      F      0.132730000000     0.922500000000     0.998900000000    -0.431957   
F23      F      0.953400000000     0.004880000000     0.849760000000    -0.429661   
F24      F      0.932620000000     0.980960000000     0.120760000000    -0.430471   
H1       H      0.462120000000     0.542040000000     0.773510000000     0.049275   
H2       H      0.464250000000     0.457260000000     0.688620000000     0.0413846  
H3       H      0.539820000000     0.521840000000     0.684960000000     0.085495   
H4       H      0.444080000000     0.512070000000     0.867520000000     0.0441982  
H5       H      0.495030000000     0.442660000000     0.643540000000     0.0605603  
H6       H      0.529990000000     0.538140000000     0.823270000000     0.040711   
H7       H      0.450980000000     0.477720000000     0.823270000000     0.039216   
H8       H      0.533390000000     0.534130000000     0.881760000000     0.0502447  
H9       H      0.534630000000     0.524810000000     0.626630000000     0.00228125 
H10      H      0.468100000000     0.532660000000     0.717200000000     0.0453212  
H11      H      0.458830000000     0.459660000000     0.630340000000     0.0450959  
H12      H      0.524800000000     0.465120000000     0.792860000000     0.0455714  
H13      H      0.457500000000     0.496240000000     0.673830000000     0.0414232  
H14      H      0.453650000000     0.473660000000     0.881630000000     0.0504565  
H15      H      0.534140000000     0.498610000000     0.837500000000     0.0417911  
H16      H      0.488210000000     0.463540000000     0.837570000000     0.0417435  
H17      H      0.530980000000     0.455900000000     0.736540000000     0.0581398  
H18      H      0.501490000000     0.533720000000     0.671580000000     0.0573441  
H19      H      0.498840000000     0.553650000000     0.867730000000     0.0451327  
H20      H      0.454180000000     0.465650000000     0.217930000000     0.0493011  
H21      H      0.512240000000     0.449060000000     0.323690000000     0.0427408  
H22      H      0.447280000000     0.524340000000     0.324570000000     0.0863181  
H23      H      0.542150000000     0.495380000000     0.143100000000     0.0552863  
H24      H      0.478740000000     0.440340000000     0.368390000000     0.0616536  
H25      H      0.463780000000     0.539360000000     0.188090000000     0.0433257  
H26      H      0.527760000000     0.463320000000     0.187160000000     0.0426349  
H27      H      0.459610000000     0.536870000000     0.129590000000     0.0562515  
H28      H      0.451720000000     0.527720000000     0.382930000000     0.00265538 
H29      H      0.445900000000     0.458180000000     0.274260000000     0.0605329  
H30      H      0.516900000000     0.451840000000     0.382000000000     0.0455652  
H31      H      0.529690000000     0.530050000000     0.237430000000     0.0527242  
H32      H      0.524600000000     0.486860000000     0.337910000000     0.0422917  
H33      H      0.523800000000     0.460460000000     0.128620000000     0.0550525  
H34      H      0.451250000000     0.501790000000     0.173410000000     0.0479851  
H35      H      0.488300000000     0.457750000000     0.172870000000     0.044694   
H36      H      0.521360000000     0.522660000000     0.293740000000     0.0467339  
H37      H      0.486730000000     0.530640000000     0.338500000000     0.0583503  
H38      H      0.497480000000     0.548530000000     0.143790000000     0.0496457  
H39      H      0.533320000000     0.702260000000     0.470210000000     0.0501303  
H40      H      0.479470000000     0.808470000000     0.450250000000     0.042987   
H41      H      0.544430000000     0.811740000000     0.525310000000     0.0865606  
H42      H      0.442550000000     0.632160000000     0.503120000000     0.0535009  
H43      H      0.514150000000     0.851910000000     0.439480000000     0.0639864  
H44      H      0.523430000000     0.674190000000     0.544290000000     0.0433995  
H45      H      0.457730000000     0.675220000000     0.469820000000     0.0423916  
H46      H      0.524870000000     0.615540000000     0.542710000000     0.0557676  
H47      H      0.541150000000     0.870460000000     0.525800000000     0.00158355 
H48      H      0.543810000000     0.758050000000     0.460980000000     0.0617506  
H49      H      0.476190000000     0.866920000000     0.449850000000     0.046422   
H50      H      0.459580000000     0.726760000000     0.534830000000     0.0516976  
H51      H      0.467400000000     0.824910000000     0.487180000000     0.0422949  
H52      H      0.458730000000     0.616550000000     0.467660000000     0.055218   
H53      H      0.534620000000     0.658500000000     0.506760000000     0.0489287  
H54      H      0.496370000000     0.659110000000     0.463410000000     0.0452655  
H55      H      0.470050000000     0.782550000000     0.525600000000     0.0463101  
H56      H      0.505290000000     0.826820000000     0.530900000000     0.0578142  
H57      H      0.487630000000     0.631490000000     0.554240000000     0.0478127  
H58      H      0.456950000000     0.278650000000     0.471760000000     0.0467382  
H59      H      0.520080000000     0.177510000000     0.460670000000     0.0419475  
H60      H      0.449320000000     0.169160000000     0.529860000000     0.0850958  
H61      H      0.540210000000     0.355410000000     0.510080000000     0.0454427  
H62      H      0.490650000000     0.131460000000     0.446690000000     0.0611446  
H63      H      0.457060000000     0.310710000000     0.544390000000     0.039819   
H64      H      0.530700000000     0.310190000000     0.477740000000     0.0391988  
H65      H      0.452740000000     0.369190000000     0.539500000000     0.048756   
H66      H      0.457810000000     0.110700000000     0.531250000000     0.000621786
H67      H      0.451410000000     0.221970000000     0.463720000000     0.0591769  
H68      H      0.528180000000     0.119420000000     0.461430000000     0.0460879  
H69      H      0.525170000000     0.261670000000     0.544300000000     0.0488906  
H70      H      0.529870000000     0.162140000000     0.498690000000     0.0396549  
H71      H      0.526770000000     0.368640000000     0.472600000000     0.0487035  
H72      H      0.449550000000     0.324130000000     0.505140000000     0.0424792  
H73      H      0.492240000000     0.323840000000     0.466520000000     0.042522   
H74      H      0.519700000000     0.204990000000     0.536180000000     0.043845   
H75      H      0.488960000000     0.157330000000     0.538660000000     0.0551772  
H76      H      0.488830000000     0.355820000000     0.556510000000     0.0461256  
H77      H      0.559170000000     0.780160000000     0.991740000000     0.0520548  
H78      H      0.480240000000     0.686420000000     0.046710000000     0.0425279  
H79      H      0.530850000000     0.680730000000     0.961460000000     0.0837793  
H80      H      0.512670000000     0.865940000000     0.941220000000     0.0533059  
H81      H      0.509650000000     0.638810000000     0.051640000000     0.0618433  
H82      H      0.531950000000     0.823540000000     0.031240000000     0.0401285  
H83      H      0.482170000000     0.818860000000     0.945450000000     0.0420191  
H84      H      0.525250000000     0.881530000000     0.032390000000     0.0485865  
H85      H      0.523000000000     0.622810000000     0.960460000000    -0.00149425 
H86      H      0.558550000000     0.723570000000     0.001740000000     0.0659303  
H87      H      0.469770000000     0.627990000000     0.043940000000     0.0462632  
H88      H      0.457750000000     0.780950000000     0.992310000000     0.0440913  
H89      H      0.460980000000     0.673080000000     0.011510000000     0.0390934  
H90      H      0.472800000000     0.877400000000     0.948060000000     0.0564266  
H91      H      0.491360000000     0.835380000000     0.029280000000     0.0427463  
H92      H      0.462690000000     0.832460000000     0.980430000000     0.0406641  
H93      H      0.457160000000     0.724640000000     0.999310000000     0.044295   
H94      H      0.490150000000     0.669390000000     0.963140000000     0.0576004  
H95      H      0.549470000000     0.867830000000     0.000850000000     0.0482128  
H96      H      0.429740000000     0.224910000000     0.978080000000     0.0506312  
H97      H      0.504510000000     0.316080000000     0.039930000000     0.0433918  
H98      H      0.462300000000     0.325360000000     0.950620000000     0.0827731  
H99      H      0.476060000000     0.137120000000     0.933090000000     0.0426081  
H100     H      0.475250000000     0.363740000000     0.044190000000     0.0613403  
H101     H      0.456810000000     0.182430000000     0.021330000000     0.0419927  
H102     H      0.506400000000     0.184610000000     0.935330000000     0.0383877  
H103     H      0.463640000000     0.124770000000     0.024450000000     0.0555952  
H104     H      0.470670000000     0.383280000000     0.952550000000    -0.00240904 
H105     H      0.430200000000     0.281430000000     0.988510000000     0.0648508  
H106     H      0.515670000000     0.374540000000     0.040180000000     0.0464074  
H107     H      0.530940000000     0.223300000000     0.984390000000     0.045187   
H108     H      0.527070000000     0.330520000000     0.007210000000     0.0391155  
H109     H      0.516150000000     0.126230000000     0.939720000000     0.0481353  
H110     H      0.497510000000     0.170810000000     0.019800000000     0.0490317  
H111     H      0.526190000000     0.172340000000     0.970610000000     0.0426214  
H112     H      0.531530000000     0.279640000000     0.991960000000     0.0445697  
H113     H      0.502700000000     0.336310000000     0.956590000000     0.0567527  
H114     H      0.439790000000     0.137110000000     0.992070000000     0.0451757  
H115     H      0.505600000000     0.934150000000     0.710410000000     0.0519582  
H116     H      0.551550000000     0.012820000000     0.806900000000     0.0408983  
H117     H      0.463260000000     0.966830000000     0.805600000000     0.0841142  
H118     H      0.456770000000     0.973560000000     0.622670000000     0.0529337  
H119     H      0.550450000000     0.985050000000     0.855520000000     0.0573884  
H120     H      0.547790000000     0.967140000000     0.668030000000     0.0392944  
H121     H      0.455390000000     0.004230000000     0.669520000000     0.0417537  
H122     H      0.550080000000     0.974780000000     0.609950000000     0.0473746  
H123     H      0.456850000000     0.977170000000     0.862810000000    -0.00216364 
H124     H      0.510980000000     0.936020000000     0.767540000000     0.0639371  
H125     H      0.543560000000     0.025460000000     0.864310000000     0.0432072  
H126     H      0.501670000000     0.035120000000     0.707840000000     0.0435777  
H127     H      0.516110000000     0.034170000000     0.816120000000     0.0380896  
H128     H      0.458660000000     0.013850000000     0.611250000000     0.0556524  
H129     H      0.540580000000     0.006990000000     0.656100000000     0.0417214  
H130     H      0.487920000000     0.028310000000     0.656970000000     0.0400478  
H131     H      0.504260000000     0.036840000000     0.764510000000     0.0434541  
H132     H      0.465910000000     0.007670000000     0.815760000000     0.0576504  
H133     H      0.522420000000     0.945680000000     0.622560000000     0.0484445  
H134     H      0.454790000000     0.999600000000     0.266720000000     0.0440647  
H135     H      0.525300000000     0.965400000000     0.168870000000     0.043206   
H136     H      0.475570000000     0.051440000000     0.168740000000     0.0873746  
H137     H      0.544630000000     0.018270000000     0.352620000000     0.0568973  
H138     H      0.542030000000     0.991410000000     0.122020000000     0.0690121  
H139     H      0.485930000000     0.952830000000     0.303520000000     0.0399519  
H140     H      0.522550000000     0.045040000000     0.308310000000     0.0427658  
H141     H      0.476360000000     0.954010000000     0.361990000000     0.0496807  
H142     H      0.464100000000     0.043660000000     0.110800000000     0.000133866
H143     H      0.453260000000     0.003930000000     0.210120000000     0.0445143  
H144     H      0.516240000000     0.959950000000     0.111300000000     0.0453654  
H145     H      0.556020000000     0.005000000000     0.264700000000     0.055462   
H146     H      0.484410000000     0.966800000000     0.158060000000     0.0404002  
H147     H      0.515250000000     0.045020000000     0.366500000000     0.0517073  
H148     H      0.461660000000     0.984640000000     0.317350000000     0.0400768  
H149     H      0.482730000000     0.037090000000     0.320230000000     0.0440722  
H150     H      0.554300000000     0.012110000000     0.207780000000     0.0608764  
H151     H      0.456080000000     0.015450000000     0.158210000000     0.0544802  
H152     H      0.516700000000     0.952340000000     0.350290000000     0.0511637  
H153     H      0.777530000000     0.526210000000     0.466290000000     0.0502675  
H154     H      0.671040000000     0.465890000000     0.456870000000     0.0420914  
H155     H      0.672010000000     0.537720000000     0.525310000000     0.087842   
H156     H      0.853560000000     0.442210000000     0.502960000000     0.042521   
H157     H      0.625640000000     0.498170000000     0.446390000000     0.0623972  
H158     H      0.809320000000     0.523690000000     0.539600000000     0.0433087  
H159     H      0.808390000000     0.452570000000     0.470460000000     0.0393473  
H160     H      0.867980000000     0.527920000000     0.534910000000     0.0557634  
H161     H      0.613670000000     0.533920000000     0.530620000000     0.00605342 
H162     H      0.720740000000     0.533100000000     0.458860000000     0.0618414  
H163     H      0.612490000000     0.461370000000     0.461860000000     0.0449506  
H164     H      0.759670000000     0.456860000000     0.537370000000     0.0493822  
H165     H      0.657910000000     0.457190000000     0.496010000000     0.0415809  
H166     H      0.866840000000     0.455930000000     0.465590000000     0.0495999  
H167     H      0.822740000000     0.532620000000     0.500620000000     0.0492286  
H168     H      0.822350000000     0.491180000000     0.460410000000     0.045763   
H169     H      0.702900000000     0.463790000000     0.529980000000     0.0463459  
H170     H      0.658270000000     0.499210000000     0.535860000000     0.0613202  
H171     H      0.854460000000     0.491180000000     0.550240000000     0.0443376  
H172     H      0.200800000000     0.521210000000     0.528480000000     0.0469625  
H173     H      0.307110000000     0.460860000000     0.543130000000     0.0414952  
H174     H      0.309450000000     0.534610000000     0.476790000000     0.0873402  
H175     H      0.127630000000     0.439040000000     0.482900000000     0.0427484  
H176     H      0.351380000000     0.493160000000     0.557510000000     0.0611951  
H177     H      0.173620000000     0.521680000000     0.453490000000     0.0413132  
H178     H      0.170730000000     0.447090000000     0.518880000000     0.0385914  
H179     H      0.114790000000     0.525840000000     0.455090000000     0.0499351  
H180     H      0.367990000000     0.531800000000     0.475150000000     0.00697334 
H181     H      0.256900000000     0.527750000000     0.540050000000     0.0596131  
H182     H      0.366050000000     0.457160000000     0.541500000000     0.0444912  
H183     H      0.223630000000     0.454330000000     0.456460000000     0.0500199  
H184     H      0.322770000000     0.453520000000     0.504660000000     0.0419901  
H185     H      0.112280000000     0.449860000000     0.520430000000     0.0481755  
H186     H      0.158110000000     0.528860000000     0.492050000000     0.0436659  
H187     H      0.156170000000     0.485110000000     0.530270000000     0.0429057  
H188     H      0.279740000000     0.460810000000     0.468090000000     0.0471088  
H189     H      0.324460000000     0.496590000000     0.466160000000     0.0624381  
H190     H      0.129050000000     0.489620000000     0.439160000000     0.0442081  
H191     H      0.783160000000     0.508680000000     0.031780000000     0.0486777  
H192     H      0.678970000000     0.525000000000     0.973250000000     0.0444341  
H193     H      0.672980000000     0.453290000000     0.041450000000     0.0856413  
H194     H      0.855110000000     0.471640000000     0.944170000000     0.0425888  
H195     H      0.634570000000     0.539030000000     0.005040000000     0.0695981  
H196     H      0.814590000000     0.435750000000     0.027200000000     0.0399756  
H197     H      0.810470000000     0.504630000000     0.955930000000     0.0398907  
H198     H      0.873430000000     0.440590000000     0.028900000000     0.0481602  
H199     H      0.614080000000     0.453460000000     0.036420000000    -0.000133897
H200     H      0.726840000000     0.518140000000     0.039750000000     0.0621565  
H201     H      0.620100000000     0.525230000000     0.968180000000     0.0498178  
H202     H      0.761440000000     0.439550000000     0.961570000000     0.0481839  
H203     H      0.662310000000     0.487550000000     0.963050000000     0.0396171  
H204     H      0.868860000000     0.509430000000     0.956370000000     0.0498736  
H205     H      0.828280000000     0.474860000000     0.035460000000     0.0441611  
H206     H      0.826080000000     0.515060000000     0.993720000000     0.0453225  
H207     H      0.705090000000     0.449120000000     0.969460000000     0.0440172  
H208     H      0.658680000000     0.446290000000     0.002450000000     0.0552929  
H209     H      0.858400000000     0.425260000000     0.992800000000     0.042741   
H210     H      0.205250000000     0.477630000000     0.032480000000     0.0462752  
H211     H      0.310500000000     0.468770000000     0.976850000000     0.0438785  
H212     H      0.311860000000     0.541540000000     0.044200000000     0.0853568  
H213     H      0.131920000000     0.508850000000     0.943800000000     0.0427304  
H214     H      0.355340000000     0.458110000000     0.009450000000     0.0693973  
H215     H      0.169160000000     0.548540000000     0.026870000000     0.0399998  
H216     H      0.178690000000     0.479310000000     0.956460000000     0.0386595  
H217     H      0.110910000000     0.540250000000     0.027780000000     0.0487017  
H218     H      0.370810000000     0.545050000000     0.039070000000    -0.000110524
H219     H      0.261910000000     0.472710000000     0.041980000000     0.0602761  
H220     H      0.369040000000     0.471550000000     0.972160000000     0.0514905  
H221     H      0.223230000000     0.548300000000     0.962760000000     0.0483426  
H222     H      0.324970000000     0.507000000000     0.966200000000     0.0398424  
H223     H      0.120570000000     0.470470000000     0.956630000000     0.0474724  
H224     H      0.157890000000     0.508720000000     0.035400000000     0.0422787  
H225     H      0.163450000000     0.468240000000     0.994210000000     0.0417992  
H226     H      0.279930000000     0.543270000000     0.972170000000     0.0441335  
H227     H      0.325710000000     0.549060000000     0.005130000000     0.0552308  
H228     H      0.125400000000     0.555690000000     0.991530000000     0.0432292  
H229     H      0.029010000000     0.526830000000     0.780810000000     0.0452343  
H230     H      0.040910000000     0.470010000000     0.673600000000     0.0406111  
H231     H      0.968560000000     0.538270000000     0.675760000000     0.0845703  
H232     H      0.997810000000     0.439490000000     0.855200000000     0.0424205  
H233     H      0.049690000000     0.503880000000     0.629190000000     0.0616102  
H234     H      0.954790000000     0.518970000000     0.811490000000     0.0392607  
H235     H      0.029660000000     0.453550000000     0.810820000000     0.0381797  
H236     H      0.957960000000     0.522390000000     0.869920000000     0.0474561  
H237     H      0.963330000000     0.535010000000     0.617500000000     0.00171532 
H238     H      0.035600000000     0.535790000000     0.724480000000     0.0587352  
H239     H      0.036470000000     0.466450000000     0.615410000000     0.043987   
H240     H      0.961260000000     0.454310000000     0.761460000000     0.04785    
H241     H      0.002080000000     0.459580000000     0.660270000000     0.039449   
H242     H      0.033390000000     0.456920000000     0.869390000000     0.0465983  
H243     H      0.992910000000     0.530490000000     0.825840000000     0.0411921  
H244     H      0.036310000000     0.492610000000     0.825410000000     0.0405831  
H245     H      0.967680000000     0.463400000000     0.705170000000     0.0438034  
H246     H      0.959860000000     0.499520000000     0.661500000000     0.0559018  
H247     H      0.945470000000     0.484970000000     0.855470000000     0.0433736  
H248     H      0.955770000000     0.518930000000     0.207030000000     0.0491338  
H249     H      0.947320000000     0.458830000000     0.313380000000     0.041995   
H250     H      0.016240000000     0.530460000000     0.311410000000     0.0861556  
H251     H      0.994650000000     0.436490000000     0.130200000000     0.0430424  
H252     H      0.936290000000     0.491240000000     0.358160000000     0.0633918  
H253     H      0.029590000000     0.518300000000     0.176400000000     0.0416607  
H254     H      0.961390000000     0.446010000000     0.174770000000     0.0391499  
H255     H      0.025810000000     0.523420000000     0.117990000000     0.0522326  
H256     H      0.021690000000     0.527070000000     0.369650000000     0.00182028 
H257     H      0.948380000000     0.525590000000     0.263570000000     0.0618246  
H258     H      0.952700000000     0.455050000000     0.371820000000     0.0440505  
H259     H      0.028040000000     0.450360000000     0.224420000000     0.048909   
H260     H      0.986680000000     0.450490000000     0.326530000000     0.0391945  
H261     H      0.957490000000     0.450670000000     0.116410000000     0.0484463  
H262     H      0.990530000000     0.526580000000     0.162360000000     0.0462588  
H263     H      0.951040000000     0.484690000000     0.161360000000     0.044122   
H264     H      0.020600000000     0.456950000000     0.280960000000     0.0443187  
H265     H      0.026510000000     0.492080000000     0.325630000000     0.0559269  
H266     H      0.042190000000     0.487070000000     0.131240000000     0.0441218  
H267     H      0.964160000000     0.780680000000     0.457080000000     0.0470736  
H268     H      0.024600000000     0.675110000000     0.453100000000     0.0446609  
H269     H      0.950780000000     0.676570000000     0.519570000000     0.0881399  
H270     H      0.047810000000     0.857320000000     0.494120000000     0.0438088  
H271     H      0.993080000000     0.629780000000     0.441450000000     0.0703798  
H272     H      0.963770000000     0.814860000000     0.529040000000     0.0406467  
H273     H      0.037890000000     0.811340000000     0.463000000000     0.039325   
H274     H      0.960260000000     0.873260000000     0.522300000000     0.0477728  
H275     H      0.955030000000     0.618200000000     0.525590000000     0.00657896 
H276     H      0.957240000000     0.723870000000     0.451320000000     0.0624499  
H277     H      0.029060000000     0.616720000000     0.458960000000     0.049769   
H278     H      0.030720000000     0.765050000000     0.531420000000     0.0497299  
H279     H      0.031960000000     0.662300000000     0.492590000000     0.0423249  
H280     H      0.034870000000     0.869630000000     0.456170000000     0.0476308  
H281     H      0.956750000000     0.827200000000     0.489340000000     0.0426238  
H282     H      0.999710000000     0.825240000000     0.451110000000     0.0413662  
H283     H      0.023800000000     0.708240000000     0.525670000000     0.0470437  
H284     H      0.989180000000     0.662980000000     0.530950000000     0.0610597  
H285     H      0.995980000000     0.859900000000     0.540110000000     0.0436823  
H286     H      0.958750000000     0.260000000000     0.528050000000     0.0474951  
H287     H      0.045020000000     0.176330000000     0.517140000000     0.040929   
H288     H      0.977580000000     0.177370000000     0.444170000000     0.083755   
H289     H      0.986070000000     0.355670000000     0.546510000000     0.0417542  
H290     H      0.058200000000     0.133320000000     0.482780000000     0.0620299  
H291     H      0.955840000000     0.311200000000     0.462910000000     0.0389382  
H292     H      0.022200000000     0.313090000000     0.536790000000     0.0380113  
H293     H      0.956410000000     0.369780000000     0.460310000000     0.0474366  
H294     H      0.975000000000     0.118860000000     0.445200000000     0.000345418
H295     H      0.969480000000     0.204260000000     0.518880000000     0.0436023  
H296     H      0.043090000000     0.117730000000     0.518720000000     0.043932   
H297     H      0.031590000000     0.284760000000     0.462520000000     0.0453085  
H298     H      0.006240000000     0.160940000000     0.524440000000     0.0395012  
H299     H      0.023280000000     0.371690000000     0.534920000000     0.0466856  
H300     H      0.994340000000     0.327440000000     0.455940000000     0.0414003  
H301     H      0.033070000000     0.328560000000     0.499080000000     0.0410138  
H302     H      0.042260000000     0.229010000000     0.453270000000     0.0587322  
H303     H      0.966870000000     0.161410000000     0.481690000000     0.0553659  
H304     H      0.940980000000     0.354420000000     0.496210000000     0.0425117  
H305     H      0.789240000000     0.976140000000     0.455480000000     0.0472597  
H306     H      0.685720000000     0.962810000000     0.513650000000     0.0445493  
H307     H      0.681780000000     0.038830000000     0.450090000000     0.0857859  
H308     H      0.865640000000     0.004250000000     0.542330000000     0.0433815  
H309     H      0.640420000000     0.952830000000     0.481620000000     0.069721   
H310     H      0.822830000000     0.048260000000     0.463930000000     0.039986   
H311     H      0.819310000000     0.974080000000     0.529720000000     0.0394296  
H312     H      0.881120000000     0.042580000000     0.459890000000     0.0491917  
H313     H      0.622850000000     0.041120000000     0.456760000000    -0.00052817 
H314     H      0.732420000000     0.970720000000     0.447360000000     0.0618441  
H315     H      0.627250000000     0.964480000000     0.519690000000     0.049988   
H316     H      0.772190000000     0.042600000000     0.529450000000     0.0481726  
H317     H      0.670840000000     0.000240000000     0.526410000000     0.0399583  
H318     H      0.877730000000     0.967450000000     0.525970000000     0.0479001  
H319     H      0.835210000000     0.009590000000     0.452210000000     0.043129   
H320     H      0.833040000000     0.966220000000     0.490620000000     0.0425611  
H321     H      0.715330000000     0.037110000000     0.521370000000     0.0439538  
H322     H      0.668650000000     0.044060000000     0.489760000000     0.0549191  
H323     H      0.867810000000     0.054790000000     0.497780000000     0.0429526  
H324     H      0.213550000000     0.949170000000     0.504950000000     0.0457876  
H325     H      0.323120000000     0.942970000000     0.446250000000     0.0416222  
H326     H      0.316790000000     0.007130000000     0.521620000000     0.0872436  
H327     H      0.135980000000     0.993570000000     0.426710000000     0.0458405  
H328     H      0.366990000000     0.931140000000     0.479950000000     0.0609808  
H329     H      0.186760000000     0.025190000000     0.506690000000     0.0404468  
H330     H      0.179560000000     0.958130000000     0.433970000000     0.0389209  
H331     H      0.128410000000     0.024540000000     0.513610000000     0.0488748  
H332     H      0.375130000000     0.013760000000     0.521270000000     0.00675898 
H333     H      0.270150000000     0.940610000000     0.511900000000     0.0593325  
H334     H      0.381790000000     0.949540000000     0.445240000000     0.0446393  
H335     H      0.232970000000     0.023410000000     0.439400000000     0.0504206  
H336     H      0.335850000000     0.982880000000     0.440730000000     0.041426   
H337     H      0.120970000000     0.956820000000     0.440550000000     0.0477845  
H338     H      0.171100000000     0.986860000000     0.515170000000     0.0415929  
H339     H      0.166950000000     0.947830000000     0.472880000000     0.0409626  
H340     H      0.289570000000     0.014920000000     0.446430000000     0.0465551  
H341     H      0.332400000000     0.020070000000     0.484660000000     0.0620023  
H342     H      0.141120000000     0.039770000000     0.476630000000     0.0469142  
H343     H      0.026450000000     0.763020000000     0.989450000000     0.0462618  
H344     H      0.951810000000     0.665950000000     0.951820000000     0.0407424  
H345     H      0.994140000000     0.669760000000     0.041550000000     0.085985   
H346     H      0.939950000000     0.854530000000     0.998450000000     0.0477565  
H347     H      0.932120000000     0.621260000000     0.980540000000     0.0623409  
H348     H      0.005120000000     0.803530000000     0.941680000000     0.0399885  
H349     H      0.954480000000     0.808060000000     0.026920000000     0.0419283  
H350     H      0.018130000000     0.861320000000     0.946820000000     0.0534056  
H351     H      0.002820000000     0.611430000000     0.039890000000     0.00185531 
H352     H      0.023770000000     0.706550000000     0.994730000000     0.044836   
H353     H      0.958530000000     0.607910000000     0.950610000000     0.0432031  
H354     H      0.925340000000     0.767520000000     0.983130000000     0.0511752  
H355     H      0.992150000000     0.654080000000     0.956800000000     0.0409253  
H356     H      0.965000000000     0.865570000000     0.030360000000     0.0511444  
H357     H      0.024830000000     0.814650000000     0.977380000000     0.0444038  
H358     H      0.995730000000     0.817490000000     0.025860000000     0.0462329  
H359     H      0.922500000000     0.710660000000     0.991310000000     0.05632    
H360     H      0.016560000000     0.655990000000     0.008470000000     0.0559154  
H361     H      0.977880000000     0.852540000000     0.938490000000     0.0459526  
H362     H      0.968150000000     0.266880000000     0.990740000000     0.0438294  
H363     H      0.039420000000     0.166970000000     0.027520000000     0.0402898  
H364     H      0.992520000000     0.170830000000     0.940090000000     0.0854708  
H365     H      0.058060000000     0.355120000000     0.983320000000     0.0442012  
H366     H      0.055770000000     0.120790000000     0.999310000000     0.0602334  
H367     H      0.992640000000     0.304760000000     0.039130000000     0.0381606  
H368     H      0.042340000000     0.309720000000     0.953290000000     0.0390269  
H369     H      0.982440000000     0.362770000000     0.036760000000     0.0467896  
H370     H      0.980990000000     0.112960000000     0.944010000000     0.00274148 
H371     H      0.967600000000     0.210420000000     0.985690000000     0.0445166  
H372     H      0.029900000000     0.109280000000     0.030430000000     0.0434332  
H373     H      0.069480000000     0.265920000000     0.994960000000     0.0493145  
H374     H      0.998410000000     0.156880000000     0.024760000000     0.0413643  
H375     H      0.033800000000     0.367610000000     0.951270000000     0.0460806  
H376     H      0.972620000000     0.317680000000     0.004160000000     0.0404498  
H377     H      0.001370000000     0.320310000000     0.954730000000     0.0427845  
H378     H      0.069020000000     0.208970000000     0.986900000000     0.0544606  
H379     H      0.971490000000     0.158860000000     0.974740000000     0.0559648  
H380     H      0.022880000000     0.352390000000     0.041910000000     0.0424934  
H381     H      0.785310000000     0.037180000000     0.017120000000     0.048843   
H382     H      0.676740000000     0.052350000000     0.960710000000     0.0421003  
H383     H      0.679330000000     0.979540000000     0.028070000000     0.0866598  
H384     H      0.861070000000     0.001830000000     0.932450000000     0.0534794  
H385     H      0.632690000000     0.061170000000     0.995290000000     0.0649621  
H386     H      0.811460000000     0.961310000000     0.009750000000     0.0434088  
H387     H      0.818050000000     0.036260000000     0.945140000000     0.0415672  
H388     H      0.869980000000     0.960410000000     0.015190000000     0.0568666  
H389     H      0.620730000000     0.974880000000     0.025760000000     0.00269125 
H390     H      0.728890000000     0.045590000000     0.025770000000     0.0614137  
H391     H      0.618110000000     0.048440000000     0.958050000000     0.045409   
H392     H      0.764040000000     0.970870000000     0.944120000000     0.0509697  
H393     H      0.662830000000     0.013880000000     0.950130000000     0.0408219  
H394     H      0.876970000000     0.036130000000     0.950770000000     0.0545848  
H395     H      0.827990000000     0.998200000000     0.022060000000     0.0478178  
H396     H      0.831650000000     0.041690000000     0.984680000000     0.0433356  
H397     H      0.707650000000     0.979170000000     0.952860000000     0.0454067  
H398     H      0.664280000000     0.971380000000     0.989550000000     0.0573423  
H399     H      0.856060000000     0.949420000000     0.977170000000     0.0476088  
H400     H      0.263490000000     0.024370000000     0.955610000000     0.0494522  
H401     H      0.176630000000     0.007250000000     0.036710000000     0.0421176  
H402     H      0.177660000000     0.940550000000     0.963270000000     0.0845778  
H403     H      0.356470000000     0.042480000000     0.990860000000     0.0447072  
H404     H      0.132200000000     0.972980000000     0.045270000000     0.0620374  
H405     H      0.315730000000     0.959280000000     0.951330000000     0.0403613  
H406     H      0.312190000000     0.028020000000     0.022650000000     0.0389577  
H407     H      0.374670000000     0.957890000000     0.955420000000     0.0501814  
H408     H      0.119020000000     0.943970000000     0.958980000000     0.00120651 
H409     H      0.207080000000     0.014620000000     0.962430000000     0.0456006  
H410     H      0.118140000000     0.010790000000     0.033470000000     0.0462662  
H411     H      0.284280000000     0.953050000000     0.023880000000     0.0454706  
H412     H      0.162630000000     0.018540000000     0.998540000000     0.0425672  
H413     H      0.371160000000     0.026770000000     0.026870000000     0.0482545  
H414     H      0.330220000000     0.950170000000     0.989860000000     0.0414351  
H415     H      0.328160000000     0.989820000000     0.031010000000     0.0403962  
H416     H      0.227810000000     0.943180000000     0.030610000000     0.058161   
H417     H      0.163220000000     0.979470000000     0.955590000000     0.0573247  
H418     H      0.358960000000     0.993830000000     0.940400000000     0.0456802  
H419     H      0.952380000000     0.000390000000     0.707080000000     0.0504823  
H420     H      0.025820000000     0.945340000000     0.804540000000     0.0416544  
H421     H      0.980880000000     0.033950000000     0.805590000000     0.0854435  
H422     H      0.003390000000     0.044150000000     0.619840000000     0.0435872  
H423     H      0.995160000000     0.942700000000     0.851060000000     0.0564348  
H424     H      0.979440000000     0.955950000000     0.667520000000     0.0386785  
H425     H      0.032160000000     0.040180000000     0.667430000000     0.0387367  
H426     H      0.986360000000     0.951470000000     0.609620000000     0.0457121  
H427     H      0.986390000000     0.036020000000     0.863830000000     0.00578149 
H428     H      0.951210000000     0.993240000000     0.763960000000     0.0646978  
H429     H      0.034590000000     0.950130000000     0.863410000000     0.0453306  
H430     H      0.053590000000     0.994220000000     0.708680000000     0.0436476  
H431     H      0.046650000000     0.979800000000     0.817500000000     0.0398971  
H432     H      0.042230000000     0.032550000000     0.608950000000     0.0467877  
H433     H      0.019980000000     0.956210000000     0.655440000000     0.0423965  
H434     H      0.050140000000     0.003610000000     0.656160000000     0.0395409  
H435     H      0.052550000000     0.989890000000     0.765290000000     0.0448796  
H436     H      0.020740000000     0.029700000000     0.818950000000     0.062345   
H437     H      0.962090000000     0.983550000000     0.621830000000     0.045399   
H438     H      0.928280000000     0.985770000000     0.265920000000     0.0516758  
H439     H      0.006240000000     0.034240000000     0.169570000000     0.0418452  
H440     H      0.954670000000     0.949240000000     0.166540000000     0.0842805  
H441     H      0.973330000000     0.940050000000     0.354300000000     0.0442296  
H442     H      0.976190000000     0.037530000000     0.122140000000     0.0596913  
H443     H      0.959530000000     0.027590000000     0.306000000000     0.0415671  
H444     H      0.002550000000     0.937920000000     0.306180000000     0.0394328  
H445     H      0.968640000000     0.032580000000     0.363260000000     0.0536648  
H446     H      0.962720000000     0.946210000000     0.108760000000    -0.000149257
H447     H      0.928170000000     0.992670000000     0.208950000000     0.0647085  
H448     H      0.016210000000     0.030180000000     0.111520000000     0.045403   
H449     H      0.029640000000     0.982030000000     0.264830000000     0.0443923  
H450     H      0.025220000000     0.998470000000     0.157170000000     0.0396094  
H451     H      0.014150000000     0.943730000000     0.363820000000     0.0487144  
H452     H      0.000360000000     0.023550000000     0.316420000000     0.0471783  
H453     H      0.025240000000     0.972180000000     0.316450000000     0.041217   
H454     H      0.029360000000     0.985980000000     0.208350000000     0.044695   
H455     H      0.995450000000     0.949910000000     0.155320000000     0.0589146  
H456     H      0.941920000000     0.001650000000     0.353050000000     0.0464224  
N1       N      0.500420000000     0.487770000000     0.623860000000    -0.183581   
N2       N      0.504260000000     0.487130000000     0.689820000000    -0.0878489  
N3       N      0.488470000000     0.510540000000     0.820230000000    -0.112693   
N4       N      0.489920000000     0.508620000000     0.886240000000    -0.156982   
N5       N      0.480050000000     0.486160000000     0.387090000000    -0.183285   
N6       N      0.477290000000     0.484620000000     0.321060000000    -0.0874033  
N7       N      0.498430000000     0.503510000000     0.190640000000    -0.111454   
N8       N      0.496710000000     0.502910000000     0.124610000000    -0.153672   
N9       N      0.512880000000     0.873020000000     0.484160000000    -0.183403   
N10      N      0.514320000000     0.806900000000     0.485890000000    -0.0871827  
N11      N      0.488300000000     0.677910000000     0.509080000000    -0.111747   
N12      N      0.487440000000     0.611770000000     0.508920000000    -0.154314   
N13      N      0.488430000000     0.110350000000     0.491340000000    -0.183677   
N14      N      0.481970000000     0.176220000000     0.492860000000    -0.0881043  
N15      N      0.496220000000     0.307510000000     0.513650000000    -0.112399   
N16      N      0.494020000000     0.373620000000     0.510690000000    -0.156256   
N17      N      0.502550000000     0.620570000000     0.006290000000    -0.183832   
N18      N      0.509260000000     0.686120000000     0.006150000000    -0.0866118  
N19      N      0.510660000000     0.818520000000     0.986380000000    -0.111603   
N20      N      0.504850000000     0.884190000000     0.986450000000    -0.156117   
N21      N      0.486190000000     0.383630000000     0.000300000000    -0.184079   
N22      N      0.479400000000     0.318260000000     0.996930000000    -0.0868992  
N23      N      0.478140000000     0.186150000000     0.976360000000    -0.112108   
N24      N      0.484720000000     0.120600000000     0.978830000000    -0.156403   
N25      N      0.503680000000     0.994760000000     0.868980000000    -0.18519    
N26      N      0.509540000000     0.985890000000     0.804160000000    -0.0873146  
N27      N      0.500010000000     0.981740000000     0.671210000000    -0.111907   
N28      N      0.501350000000     0.987280000000     0.605800000000    -0.156051   
N29      N      0.497510000000     0.006350000000     0.105820000000    -0.183491   
N30      N      0.504520000000     0.010810000000     0.170890000000    -0.0871906  
N31      N      0.508270000000     0.997460000000     0.303480000000    -0.111343   
N32      N      0.503240000000     0.996200000000     0.368860000000    -0.155349   
N33      N      0.608370000000     0.501190000000     0.492620000000    -0.183353   
N34      N      0.674510000000     0.503980000000     0.488770000000    -0.0870176  
N35      N      0.805890000000     0.485870000000     0.507380000000    -0.112459   
N36      N      0.872050000000     0.488160000000     0.504140000000    -0.156101   
N37      N      0.371440000000     0.498130000000     0.512580000000    -0.18332    
N38      N      0.305160000000     0.499870000000     0.512220000000    -0.0872537  
N39      N      0.175380000000     0.482430000000     0.484120000000    -0.112619   
N40      N      0.109110000000     0.484970000000     0.484160000000    -0.157358   
N41      N      0.612780000000     0.494610000000     0.007500000000    -0.182556   
N42      N      0.679000000000     0.491480000000     0.010070000000    -0.0872324  
N43      N      0.809340000000     0.467970000000     0.989610000000    -0.112665   
N44      N      0.875660000000     0.471530000000     0.989150000000    -0.156829   
N45      N      0.374560000000     0.503770000000     0.010600000000    -0.182558   
N46      N      0.308260000000     0.502760000000     0.013180000000    -0.0877143  
N47      N      0.176990000000     0.516320000000     0.989740000000    -0.112837   
N48      N      0.111050000000     0.508380000000     0.988630000000    -0.157348   
N49      N      0.003190000000     0.504460000000     0.611820000000    -0.183336   
N50      N      0.006910000000     0.506330000000     0.677760000000    -0.0878399  
N51      N      0.989950000000     0.483700000000     0.808150000000    -0.112937   
N52      N      0.991460000000     0.484770000000     0.874150000000    -0.158025   
N53      N      0.982630000000     0.495570000000     0.375420000000    -0.183338   
N54      N      0.979190000000     0.497020000000     0.309480000000    -0.0873715  
N55      N      0.998000000000     0.479720000000     0.178520000000    -0.112699   
N56      N      0.996420000000     0.482710000000     0.112560000000    -0.156552   
N57      N      0.987540000000     0.612680000000     0.487500000000    -0.181448   
N58      N      0.985280000000     0.678670000000     0.483620000000    -0.0869503  
N59      N      0.003130000000     0.810250000000     0.498720000000    -0.111876   
N60      N      0.001890000000     0.876200000000     0.493830000000    -0.157325   
N61      N      0.012680000000     0.113950000000     0.478520000000    -0.18457    
N62      N      0.013450000000     0.180070000000     0.478750000000    -0.0877029  
N63      N      0.986880000000     0.308920000000     0.501850000000    -0.113166   
N64      N      0.985870000000     0.375030000000     0.501040000000    -0.158342   
N65      N      0.620440000000     0.998160000000     0.482750000000    -0.183318   
N66      N      0.686550000000     0.998500000000     0.478930000000    -0.0878496  
N67      N      0.818080000000     0.013340000000     0.499100000000    -0.112707   
N68      N      0.884140000000     0.008040000000     0.496650000000    -0.157476   
N69      N      0.383050000000     0.977430000000     0.487210000000    -0.183424   
N70      N      0.316990000000     0.972390000000     0.485920000000    -0.0873     
N71      N      0.186150000000     0.993900000000     0.467950000000    -0.112575   
N72      N      0.120130000000     0.995010000000     0.473520000000    -0.156956   
N73      N      0.975690000000     0.604930000000     0.997880000000    -0.184263   
N74      N      0.969560000000     0.670670000000     0.998170000000    -0.0873741  
N75      N      0.976000000000     0.803470000000     0.982150000000    -0.111968   
N76      N      0.985480000000     0.868710000000     0.984540000000    -0.155516   
N77      N      0.010920000000     0.106020000000     0.983950000000    -0.184413   
N78      N      0.019660000000     0.171460000000     0.981940000000    -0.0877656  
N79      N      0.020800000000     0.304500000000     0.997950000000    -0.112188   
N80      N      0.012690000000     0.370040000000     0.996900000000    -0.157996   
N81      N      0.614850000000     0.014950000000     0.995710000000    -0.182884   
N82      N      0.681190000000     0.018070000000     0.996540000000    -0.0870356  
N83      N      0.811690000000     0.996750000000     0.974770000000    -0.112406   
N84      N      0.877900000000     0.993890000000     0.978250000000    -0.154263   
N85      N      0.113970000000     0.973770000000     0.999300000000    -0.183164   
N86      N      0.180310000000     0.971720000000     0.002000000000    -0.0876252  
N87      N      0.310950000000     0.996150000000     0.984450000000    -0.112806   
N88      N      0.377240000000     0.997740000000     0.986170000000    -0.156942   
N89      N      0.002290000000     0.988570000000     0.868180000000    -0.183041   
N90      N      0.999270000000     0.987560000000     0.802630000000    -0.0877902  
N91      N      0.001830000000     0.000610000000     0.669750000000    -0.111239   
N92      N      0.006520000000     0.997260000000     0.604360000000    -0.15752    
N93      N      0.984000000000     0.991690000000     0.105220000000    -0.184248   
N94      N      0.976960000000     0.993780000000     0.170620000000    -0.0874877  
N95      N      0.977390000000     0.980970000000     0.303580000000    -0.112137   
N96      N      0.986240000000     0.985610000000     0.368680000000    -0.15674    
O1       O      0.996510000000     0.987580000000     0.986880000000    -0.368031   
O2       O      0.986830000000     0.061340000000     0.966730000000    -0.295157   
O3       O      0.008140000000     0.007670000000     0.060180000000    -0.304457   
O4       O      0.922700000000     0.973360000000     0.999430000000    -0.295381   
O5       O      0.021080000000     0.058070000000     0.005480000000    -0.303381   
O6       O      0.926860000000     0.011810000000     0.964870000000    -0.292104   
O7       O      0.971740000000     0.970790000000     0.057620000000    -0.28993    
O8       O      0.008460000000     0.913940000000     0.967060000000    -0.2951     
O9       O      0.067620000000     0.997480000000     0.012530000000    -0.302347   
O10      O      0.972940000000     0.916630000000     0.004690000000    -0.299994   
O11      O      0.067730000000     0.962290000000     0.974370000000    -0.292525   
O12      O      0.017700000000     0.968280000000     0.915330000000    -0.30243    
O13      O      0.984170000000     0.007910000000     0.914520000000    -0.282195   
O14      O      0.001990000000     0.995290000000     0.485860000000    -0.367781   
O15      O      0.978140000000     0.010770000000     0.415060000000    -0.299107   
O16      O      0.071460000000     0.976600000000     0.460160000000    -0.301491   
O17      O      0.025620000000     0.067050000000     0.500980000000    -0.305354   
O18      O      0.009980000000     0.969790000000     0.414030000000    -0.301281   
O19      O      0.989730000000     0.067870000000     0.463670000000    -0.298143   
O20      O      0.075590000000     0.010860000000     0.498890000000    -0.300778   
O21      O      0.987340000000     0.978360000000     0.558280000000    -0.304835   
O22      O      0.019580000000     0.921860000000     0.472060000000    -0.303936   
O23      O      0.024190000000     0.014980000000     0.556940000000    -0.302036   
O24      O      0.981160000000     0.923950000000     0.506810000000    -0.303554   
O25      O      0.929790000000     0.982400000000     0.508880000000    -0.303173   
O26      O      0.931050000000     0.020650000000     0.473940000000    -0.303947   
O27      O      0.993830000000     0.487340000000     0.993430000000    -0.366527   
O28      O      0.013050000000     0.469830000000     0.920860000000    -0.302993   
O29      O      0.920610000000     0.496600000000     0.974020000000    -0.300957   
O30      O      0.986400000000     0.413840000000     0.013060000000    -0.303702   
O31      O      0.973700000000     0.503610000000     0.920980000000    -0.304071   
O32      O      0.022450000000     0.418350000000     0.975970000000    -0.302875   
O33      O      0.923830000000     0.459290000000     0.009850000000    -0.300343   
O34      O      0.012050000000     0.504540000000     0.066200000000    -0.297756   
O35      O      0.967540000000     0.557120000000     0.975240000000    -0.304031   
O36      O      0.976730000000     0.466560000000     0.065480000000    -0.301372   
O37      O      0.999420000000     0.560410000000     0.016010000000    -0.29772    
O38      O      0.062470000000     0.517220000000     0.009830000000    -0.302111   
O39      O      0.067530000000     0.480890000000     0.973190000000    -0.30239    
O40      O      0.990620000000     0.493860000000     0.494040000000    -0.367688   
O41      O      0.005650000000     0.422220000000     0.516930000000    -0.304366   
O42      O      0.918110000000     0.473780000000     0.480770000000    -0.300862   
O43      O      0.978520000000     0.517430000000     0.566030000000    -0.293543   
O44      O      0.971590000000     0.421190000000     0.477890000000    -0.304295   
O45      O      0.015260000000     0.480770000000     0.565370000000    -0.305172   
O46      O      0.919240000000     0.509990000000     0.517790000000    -0.295189   
O47      O      0.009300000000     0.565560000000     0.473870000000    -0.295821   
O48      O      0.968120000000     0.475170000000     0.422820000000    -0.302414   
O49      O      0.970500000000     0.566330000000     0.508360000000    -0.285234   
O50      O      0.004890000000     0.511800000000     0.421310000000    -0.291247   
O51      O      0.062790000000     0.509050000000     0.471110000000    -0.300368   
O52      O      0.062400000000     0.471310000000     0.506580000000    -0.304174   
O53      O      0.496520000000     0.002790000000     0.987080000000    -0.368565   
O54      O      0.425170000000     0.980960000000     0.968630000000    -0.300772   
O55      O      0.478620000000     0.023870000000     0.058880000000    -0.292715   
O56      O      0.518470000000     0.932030000000     0.006020000000    -0.302711   
O57      O      0.423410000000     0.017300000000     0.005540000000    -0.301672   
O58      O      0.482920000000     0.929660000000     0.968320000000    -0.295125   
O59      O      0.513210000000     0.985200000000     0.059420000000    -0.301222   
O60      O      0.567740000000     0.028030000000     0.973470000000    -0.302038   
O61      O      0.473920000000     0.073770000000     0.002100000000    -0.298013   
O62      O      0.569000000000     0.990110000000     0.008740000000    -0.291625   
O63      O      0.507710000000     0.074800000000     0.962760000000    -0.299991   
O64      O      0.520020000000     0.015920000000     0.915350000000    -0.306333   
O65      O      0.479850000000     0.982980000000     0.915300000000    -0.289971   
O66      O      0.501420000000     0.991750000000     0.487280000000    -0.368335   
O67      O      0.427690000000     0.000820000000     0.505540000000    -0.289686   
O68      O      0.487130000000     0.973290000000     0.414420000000    -0.299918   
O69      O      0.512780000000     0.066290000000     0.472990000000    -0.304612   
O70      O      0.431640000000     0.966320000000     0.467110000000    -0.303427   
O71      O      0.475040000000     0.061140000000     0.508220000000    -0.290332   
O72      O      0.516450000000     0.016070000000     0.416630000000    -0.294434   
O73      O      0.575010000000     0.978010000000     0.502760000000    -0.301258   
O74      O      0.490900000000     0.918580000000     0.466530000000    -0.3029     
O75      O      0.571970000000     0.016800000000     0.468570000000    -0.289719   
O76      O      0.525680000000     0.920830000000     0.504840000000    -0.291673   
O77      O      0.523240000000     0.974920000000     0.558630000000    -0.302065   
O78      O      0.480370000000     0.004310000000     0.559640000000    -0.296512   
O79      O      0.493730000000     0.502180000000     0.005470000000    -0.367309   
O80      O      0.471620000000     0.489610000000     0.932810000000    -0.302369   
O81      O      0.516340000000     0.572500000000     0.987430000000    -0.287847   
O82      O      0.422330000000     0.523450000000     0.025750000000    -0.29011    
O83      O      0.513180000000     0.520630000000     0.933010000000    -0.30148    
O84      O      0.420740000000     0.486340000000     0.989610000000    -0.298479   
O85      O      0.480280000000     0.575340000000     0.024670000000    -0.302555   
O86      O      0.511130000000     0.481780000000     0.077560000000    -0.292243   
O87      O      0.567340000000     0.515500000000     0.987790000000    -0.296925   
O88      O      0.477990000000     0.521670000000     0.078070000000    -0.292548   
O89      O      0.564230000000     0.478120000000     0.023570000000    -0.291061   
O90      O      0.505670000000     0.428150000000     0.023010000000    -0.302969   
O91      O      0.473630000000     0.432390000000     0.982450000000    -0.289206   
O92      O      0.490270000000     0.492590000000     0.505480000000    -0.367056   
O93      O      0.502300000000     0.470400000000     0.433210000000    -0.302892   
O94      O      0.418310000000     0.513030000000     0.491340000000    -0.291388   
O95      O      0.472320000000     0.420540000000     0.525020000000    -0.299619   
O96      O      0.467910000000     0.509280000000     0.433870000000    -0.291876   
O97      O      0.510780000000     0.420250000000     0.490140000000    -0.300034   
O98      O      0.418150000000     0.476010000000     0.527580000000    -0.30235    
O99      O      0.514920000000     0.507980000000     0.576450000000    -0.292684   
O100     O      0.472360000000     0.565180000000     0.487090000000    -0.294725   
O101     O      0.475950000000     0.473700000000     0.578310000000    -0.302382   
O102     O      0.506520000000     0.564710000000     0.526060000000    -0.296018   
O103     O      0.562570000000     0.514650000000     0.517020000000    -0.29134    
O104     O      0.561520000000     0.477590000000     0.480840000000    -0.30324    
Zn1      Zn     0.973940000000     0.016490000000     0.959470000000     0.461457   
Zn2      Zn     0.022590000000     0.011990000000     0.015490000000     0.456253   
Zn3      Zn     0.967130000000     0.962770000000     0.011570000000     0.459496   
Zn4      Zn     0.022050000000     0.959000000000     0.961500000000     0.455698   
Zn5      Zn     0.976170000000     0.022920000000     0.460330000000     0.457252   
Zn6      Zn     0.025160000000     0.966750000000     0.458700000000     0.45214    
Zn7      Zn     0.030860000000     0.021060000000     0.510460000000     0.452459   
Zn8      Zn     0.975510000000     0.970420000000     0.513580000000     0.450507   
Zn9      Zn     0.023400000000     0.464670000000     0.966650000000     0.449425   
Zn10     Zn     0.965080000000     0.510760000000     0.966690000000     0.453889   
Zn11     Zn     0.970420000000     0.457820000000     0.019590000000     0.450918   
Zn12     Zn     0.016310000000     0.516460000000     0.020710000000     0.454007   
Zn13     Zn     0.017470000000     0.467770000000     0.520150000000     0.453659   
Zn14     Zn     0.963300000000     0.466850000000     0.469120000000     0.453963   
Zn15     Zn     0.965270000000     0.521070000000     0.520800000000     0.459855   
Zn16     Zn     0.016590000000     0.519440000000     0.466310000000     0.458103   
Zn17     Zn     0.471500000000     0.975010000000     0.960790000000     0.456165   
Zn18     Zn     0.468980000000     0.028450000000     0.012960000000     0.45782    
Zn19     Zn     0.523440000000     0.977990000000     0.014280000000     0.4612     
Zn20     Zn     0.522270000000     0.029690000000     0.960380000000     0.454715   
Zn21     Zn     0.472070000000     0.014110000000     0.514340000000     0.459225   
Zn22     Zn     0.478390000000     0.963450000000     0.459570000000     0.457738   
Zn23     Zn     0.525070000000     0.022060000000     0.462450000000     0.458623   
Zn24     Zn     0.530380000000     0.967240000000     0.512810000000     0.459493   
Zn25     Zn     0.465880000000     0.478510000000     0.978190000000     0.459138   
Zn26     Zn     0.522020000000     0.526600000000     0.979030000000     0.457306   
Zn27     Zn     0.469060000000     0.530000000000     0.032480000000     0.457109   
Zn28     Zn     0.517770000000     0.473150000000     0.031630000000     0.45808    
Zn29     Zn     0.515600000000     0.465820000000     0.478310000000     0.454131   
Zn30     Zn     0.463520000000     0.519340000000     0.479800000000     0.461514   
Zn31     Zn     0.464460000000     0.466520000000     0.533030000000     0.453711   
Zn32     Zn     0.517670000000     0.519090000000     0.530740000000     0.461364   


