data_structure

_audit_creation_method RASPA-1.0
_audit_creation_date 2023-5-25
_audit_author_name 'Poobodin Mano'

_cell_length_a    42.6475
_cell_length_b    42.7415
_cell_length_c    42.7866
_cell_angle_alpha 90
_cell_angle_beta  90
_cell_angle_gamma 90
_cell_volume      77992.2

_symmetry_cell_setting          triclinic
_symmetry_space_group_name_Hall 'P 1'
_symmetry_space_group_name_H-M  'P 1'
_symmetry_Int_Tables_number     1

_symmetry_equiv_pos_as_xyz 'x,y,z'

loop_
_atom_site_label
_atom_site_type_symbol
_atom_site_fract_x
_atom_site_fract_y
_atom_site_fract_z
_atom_site_charge
C1       C      0.000580000000     0.994680000000     0.072890000000     0.36331    
C2       C      0.083770000000     0.000040000000     0.978760000000     0.362777   
C3       C      0.003910000000     0.909470000000     0.990810000000     0.360571   
C4       C      0.996270000000     0.000980000000     0.900350000000     0.359437   
C5       C      0.990200000000     0.081460000000     0.995950000000     0.359996   
C6       C      0.911090000000     0.986590000000     0.982630000000     0.359874   
C7       C      0.995430000000     0.999190000000     0.400250000000     0.361578   
C8       C      0.080590000000     0.993280000000     0.490760000000     0.363609   
C9       C      0.001870000000     0.085520000000     0.479980000000     0.363378   
C10      C      0.991100000000     0.002910000000     0.572790000000     0.36072    
C11      C      0.986290000000     0.913220000000     0.483680000000     0.361932   
C12      C      0.906770000000     0.007570000000     0.489660000000     0.363941   
C13      C      0.990800000000     0.409230000000     0.998480000000     0.360569   
C14      C      0.987350000000     0.494060000000     0.083860000000     0.360808   
C15      C      0.081050000000     0.496010000000     0.999140000000     0.360139   
C16      C      0.996150000000     0.582210000000     0.000570000000     0.362221   
C17      C      0.908400000000     0.500100000000     0.986940000000     0.362151   
C18      C      0.999860000000     0.493370000000     0.910000000000     0.360876   
C19      C      0.002540000000     0.411970000000     0.495180000000     0.364749   
C20      C      0.985390000000     0.494830000000     0.411270000000     0.360582   
C21      C      0.907950000000     0.494260000000     0.507890000000     0.362882   
C22      C      0.986500000000     0.585540000000     0.496170000000     0.361377   
C23      C      0.080800000000     0.508670000000     0.490410000000     0.364683   
C24      C      0.003660000000     0.495110000000     0.582570000000     0.360567   
C25      C      0.410190000000     0.990210000000     0.996320000000     0.36091    
C26      C      0.498720000000     0.997880000000     0.079100000000     0.362987   
C27      C      0.495840000000     0.906110000000     0.993080000000     0.35988    
C28      C      0.584310000000     0.993330000000     0.996890000000     0.361479   
C29      C      0.494310000000     0.079450000000     0.985760000000     0.362999   
C30      C      0.498130000000     0.992290000000     0.906080000000     0.362275   
C31      C      0.407420000000     0.977100000000     0.496980000000     0.361661   
C32      C      0.485390000000     0.993570000000     0.405390000000     0.362258   
C33      C      0.485490000000     0.074670000000     0.495450000000     0.363106   
C34      C      0.580080000000     0.994830000000     0.484400000000     0.361414   
C35      C      0.504380000000     0.902280000000     0.488010000000     0.363959   
C36      C      0.497340000000     0.985480000000     0.578370000000     0.361542   
C37      C      0.409710000000     0.486900000000     0.000210000000     0.362233   
C38      C      0.493730000000     0.578120000000     0.996730000000     0.362244   
C39      C      0.500790000000     0.490480000000     0.085390000000     0.362735   
C40      C      0.581490000000     0.499590000000     0.989760000000     0.362408   
C41      C      0.489400000000     0.486280000000     0.911940000000     0.365059   
C42      C      0.503860000000     0.404850000000     0.002270000000     0.361718   
C43      C      0.408190000000     0.495630000000     0.503440000000     0.361295   
C44      C      0.492000000000     0.401610000000     0.501370000000     0.36245    
C45      C      0.490160000000     0.486290000000     0.412890000000     0.359951   
C46      C      0.581020000000     0.489600000000     0.493510000000     0.362658   
C47      C      0.499860000000     0.485480000000     0.585270000000     0.36175    
C48      C      0.496240000000     0.576470000000     0.500960000000     0.363851   
C49      C      0.505410000000     0.458290000000     0.831690000000    -0.0292636  
C50      C      0.509360000000     0.509090000000     0.667950000000    -0.0292164  
C51      C      0.492320000000     0.453330000000     0.632480000000    -0.0104348  
C52      C      0.522400000000     0.504580000000     0.634880000000    -0.0094085  
C53      C      0.525050000000     0.479250000000     0.736060000000    -0.053262   
C54      C      0.464760000000     0.484100000000     0.761060000000    -0.0530807  
C55      C      0.499230000000     0.480700000000     0.715870000000     0.0618526  
C56      C      0.481030000000     0.459860000000     0.665680000000    -0.028612   
C57      C      0.490450000000     0.481120000000     0.781250000000     0.062092   
C58      C      0.483890000000     0.510820000000     0.829110000000    -0.0403673  
C59      C      0.520890000000     0.480100000000     0.768440000000    -0.0555325  
C60      C      0.469900000000     0.508390000000     0.862210000000     0.0342961  
C61      C      0.492920000000     0.453240000000     0.864750000000    -0.0087883  
C62      C      0.469030000000     0.484560000000     0.728690000000    -0.0553793  
C63      C      0.483080000000     0.465030000000     0.166470000000    -0.0290911  
C64      C      0.484760000000     0.513300000000     0.330710000000    -0.0290947  
C65      C      0.495500000000     0.455070000000     0.364660000000    -0.0104678  
C66      C      0.471050000000     0.509320000000     0.363560000000    -0.00955363 
C67      C      0.465620000000     0.487710000000     0.261900000000    -0.0531295  
C68      C      0.525940000000     0.486400000000     0.236520000000    -0.0530661  
C69      C      0.491530000000     0.485400000000     0.281920000000     0.0616566  
C70      C      0.507440000000     0.461280000000     0.331550000000    -0.0286762  
C71      C      0.499960000000     0.487050000000     0.216480000000     0.061982   
C72      C      0.507310000000     0.516330000000     0.168310000000    -0.0402205  
C73      C      0.469690000000     0.489170000000     0.229520000000    -0.0556798  
C74      C      0.520610000000     0.513000000000     0.134930000000     0.0337424  
C75      C      0.494730000000     0.459050000000     0.133280000000    -0.00908695 
C76      C      0.521910000000     0.486200000000     0.268950000000    -0.0552299  
C77      C      0.486030000000     0.819290000000     0.472010000000    -0.0292245  
C78      C      0.521910000000     0.657870000000     0.518390000000    -0.0288869  
C79      C      0.472160000000     0.626050000000     0.484030000000    -0.00995195 
C80      C      0.512300000000     0.624790000000     0.528090000000    -0.00981475 
C81      C      0.482560000000     0.728890000000     0.517270000000    -0.0534603  
C82      C      0.527960000000     0.750210000000     0.475180000000    -0.0532042  
C83      C      0.500680000000     0.707240000000     0.500640000000     0.0620832  
C84      C      0.483730000000     0.659010000000     0.476440000000    -0.0287308  
C85      C      0.509600000000     0.771860000000     0.491560000000     0.0622011  
C86      C      0.524790000000     0.821860000000     0.513500000000    -0.0401094  
C87      C      0.486920000000     0.760970000000     0.512870000000    -0.056083   
C88      C      0.534200000000     0.855480000000     0.504730000000     0.0337854  
C89      C      0.493700000000     0.852380000000     0.460920000000    -0.0086498  
C90      C      0.523640000000     0.718120000000     0.479630000000    -0.0559825  
C91      C      0.505080000000     0.158540000000     0.482570000000    -0.0291703  
C92      C      0.464370000000     0.320700000000     0.519060000000    -0.0287141  
C93      C      0.517080000000     0.351370000000     0.488170000000    -0.00997689 
C94      C      0.472670000000     0.354310000000     0.527980000000    -0.0100686  
C95      C      0.504540000000     0.250140000000     0.525440000000    -0.0533906  
C96      C      0.462490000000     0.226160000000     0.481400000000    -0.0532053  
C97      C      0.487630000000     0.270720000000     0.506340000000     0.0619186  
C98      C      0.506570000000     0.317850000000     0.481310000000    -0.0288183  
C99      C      0.479610000000     0.205580000000     0.500310000000     0.0621638  
C100     C      0.465660000000     0.155330000000     0.523170000000    -0.0399601  
C101     C      0.500680000000     0.217810000000     0.522490000000    -0.0560604  
C102     C      0.456970000000     0.121440000000     0.514460000000     0.0332564  
C103     C      0.498420000000     0.125330000000     0.471320000000    -0.00869732 
C104     C      0.466410000000     0.258480000000     0.484290000000    -0.0558656  
C105     C      0.509730000000     0.661580000000     0.017970000000    -0.0290936  
C106     C      0.478650000000     0.823560000000     0.969190000000    -0.0287272  
C107     C      0.510200000000     0.857080000000     0.019620000000    -0.0101132  
C108     C      0.470060000000     0.857760000000     0.975270000000    -0.0102329  
C109     C      0.471330000000     0.755890000000     0.013830000000    -0.0530747  
C110     C      0.514680000000     0.728450000000     0.973190000000    -0.0531455  
C111     C      0.490790000000     0.775000000000     0.995620000000     0.0615505  
C112     C      0.516680000000     0.822950000000     0.011090000000    -0.0281531  
C113     C      0.495230000000     0.709360000000     0.991410000000     0.0619579  
C114     C      0.469640000000     0.660400000000     0.978020000000    -0.0397797  
C115     C      0.473470000000     0.723320000000     0.011840000000    -0.0558943  
C116     C      0.476670000000     0.626160000000     0.969440000000     0.0329969  
C117     C      0.519100000000     0.627580000000     0.011930000000    -0.0085432  
C118     C      0.512590000000     0.761010000000     0.975230000000    -0.0557992  
C119     C      0.520440000000     0.160570000000     0.970150000000    -0.0292778  
C120     C      0.482140000000     0.322170000000     0.015550000000    -0.0285222  
C121     C      0.534320000000     0.357390000000     0.989110000000    -0.0106815  
C122     C      0.489390000000     0.354990000000     0.027830000000    -0.0102109  
C123     C      0.522420000000     0.252020000000     0.015460000000    -0.0529917  
C124     C      0.482080000000     0.232520000000     0.967760000000    -0.0529662  
C125     C      0.506560000000     0.274420000000     0.997540000000     0.0615227  
C126     C      0.525180000000     0.324460000000     0.978430000000    -0.0288224  
C127     C      0.497790000000     0.210120000000     0.985800000000     0.0618082  
C128     C      0.476650000000     0.161820000000     0.006390000000    -0.0395026  
C129     C      0.518140000000     0.220120000000     0.009730000000    -0.0556402  
C130     C      0.466000000000     0.128720000000     0.997140000000     0.0328951  
C131     C      0.511910000000     0.127650000000     0.958910000000    -0.00891373 
C132     C      0.486360000000     0.264430000000     0.973490000000    -0.0557155  
C133     C      0.474540000000     0.973590000000     0.824180000000    -0.0291464  
C134     C      0.526880000000     0.980180000000     0.660220000000    -0.0291702  
C135     C      0.467510000000     0.988880000000     0.627410000000    -0.0105751  
C136     C      0.523460000000     0.967930000000     0.626720000000    -0.00945364 
C137     C      0.499190000000     0.956950000000     0.728790000000    -0.053376   
C138     C      0.499850000000     0.016620000000     0.755410000000    -0.0530042  
C139     C      0.498820000000     0.983320000000     0.709340000000     0.0618195  
C140     C      0.473520000000     0.999670000000     0.660860000000    -0.0285315  
C141     C      0.498470000000     0.990290000000     0.774870000000     0.0620088  
C142     C      0.526880000000     0.995610000000     0.823750000000    -0.0402869  
C143     C      0.499610000000     0.960280000000     0.761290000000    -0.0556717  
C144     C      0.523250000000     0.009230000000     0.856860000000     0.0337999  
C145     C      0.468170000000     0.985190000000     0.857360000000    -0.00913248 
C146     C      0.500620000000     0.013280000000     0.722950000000    -0.0555955  
C147     C      0.501570000000     0.973100000000     0.162070000000    -0.0294423  
C148     C      0.498450000000     0.023760000000     0.325500000000    -0.0287558  
C149     C      0.465400000000     0.972180000000     0.355590000000    -0.00958269 
C150     C      0.486380000000     0.027640000000     0.358860000000    -0.0102049  
C151     C      0.459030000000     0.001060000000     0.254380000000    -0.0534333  
C152     C      0.520030000000     0.000900000000     0.230590000000    -0.0527992  
C153     C      0.484490000000     0.001000000000     0.275070000000     0.0621225  
C154     C      0.478830000000     0.970480000000     0.322430000000    -0.0290394  
C155     C      0.494600000000     0.002320000000     0.209910000000     0.0619983  
C156     C      0.480260000000     0.025630000000     0.159520000000    -0.0397532  
C157     C      0.463910000000     0.001130000000     0.222080000000    -0.0554167  
C158     C      0.492760000000     0.030850000000     0.126220000000     0.0327654  
C159     C      0.516030000000     0.975780000000     0.129460000000    -0.00832483 
C160     C      0.515140000000     0.999640000000     0.262850000000    -0.0557529  
C161     C      0.662820000000     0.461260000000     0.488990000000    -0.0296641  
C162     C      0.825650000000     0.516090000000     0.494870000000    -0.028732   
C163     C      0.860570000000     0.468540000000     0.529200000000    -0.0093679  
C164     C      0.858210000000     0.523630000000     0.507480000000    -0.0099603  
C165     C      0.756230000000     0.487600000000     0.533430000000    -0.0533412  
C166     C      0.733320000000     0.487110000000     0.472250000000    -0.052778   
C167     C      0.777360000000     0.488680000000     0.508380000000     0.0619496  
C168     C      0.827760000000     0.463050000000     0.515470000000    -0.0292885  
C169     C      0.712170000000     0.488220000000     0.497280000000     0.0618435  
C170     C      0.662590000000     0.513510000000     0.511290000000    -0.0398861  
C171     C      0.723920000000     0.486730000000     0.528050000000    -0.0553531  
C172     C      0.629680000000     0.520570000000     0.498590000000     0.0332074  
C173     C      0.630290000000     0.465910000000     0.474450000000    -0.0081737  
C174     C      0.765640000000     0.486690000000     0.477640000000    -0.0555636  
C175     C      0.163600000000     0.484880000000     0.483120000000    -0.0297401  
C176     C      0.329180000000     0.527070000000     0.485810000000    -0.0286752  
C177     C      0.357050000000     0.477520000000     0.523570000000    -0.00935404 
C178     C      0.362760000000     0.530660000000     0.497540000000    -0.0103688  
C179     C      0.257230000000     0.509020000000     0.528060000000    -0.0533054  
C180     C      0.232240000000     0.510480000000     0.467760000000    -0.0527677  
C181     C      0.277520000000     0.508340000000     0.502310000000     0.0619498  
C182     C      0.323690000000     0.476130000000     0.510280000000    -0.0292428  
C183     C      0.211990000000     0.512400000000     0.493500000000     0.0617984  
C184     C      0.161460000000     0.534370000000     0.510790000000    -0.039999   
C185     C      0.224760000000     0.510390000000     0.523830000000    -0.055059   
C186     C      0.128020000000     0.541280000000     0.499140000000     0.0332944  
C187     C      0.131040000000     0.489780000000     0.468990000000    -0.00789614 
C188     C      0.264600000000     0.507760000000     0.471990000000    -0.0555735  
C189     C      0.660720000000     0.488630000000     0.955740000000    -0.0292517  
C190     C      0.823280000000     0.495590000000     0.005750000000    -0.0288874  
C191     C      0.863330000000     0.511910000000     0.952910000000    -0.0103777  
C192     C      0.856540000000     0.482540000000     0.004560000000    -0.00876582 
C193     C      0.758870000000     0.475510000000     0.973520000000    -0.0531828  
C194     C      0.730370000000     0.534300000000     0.974690000000    -0.0531786  
C195     C      0.777640000000     0.502430000000     0.973280000000     0.0619179  
C196     C      0.829110000000     0.522230000000     0.956240000000    -0.0287869  
C197     C      0.711630000000     0.507360000000     0.974400000000     0.0621164  
C198     C      0.665860000000     0.511090000000     0.007580000000    -0.0401714  
C199     C      0.726260000000     0.477810000000     0.974760000000    -0.0556785  
C200     C      0.631580000000     0.522350000000     0.007800000000     0.0340898  
C201     C      0.626340000000     0.498300000000     0.953370000000    -0.00894732 
C202     C      0.763060000000     0.531980000000     0.974740000000    -0.055399   
C203     C      0.327650000000     0.504800000000     0.977380000000    -0.0289488  
C204     C      0.163320000000     0.501460000000     0.027320000000    -0.0288919  
C205     C      0.129820000000     0.489080000000     0.969130000000    -0.0105698  
C206     C      0.130280000000     0.514780000000     0.022840000000    -0.00942958 
C207     C      0.232200000000     0.520840000000     0.001430000000    -0.0526619  
C208     C      0.258460000000     0.460980000000     0.000620000000    -0.0533192  
C209     C      0.212470000000     0.494670000000     0.999760000000     0.0610737  
C210     C      0.163010000000     0.477570000000     0.975940000000    -0.0285844  
C211     C      0.278200000000     0.487190000000     0.000450000000     0.0624403  
C212     C      0.327330000000     0.480040000000     0.028380000000    -0.0401054  
C213     C      0.264740000000     0.517240000000     0.002430000000    -0.0558524  
C214     C      0.360730000000     0.466920000000     0.023970000000     0.0339891  
C215     C      0.360800000000     0.493420000000     0.970340000000    -0.00928659 
C216     C      0.225900000000     0.464550000000     0.000910000000    -0.0547486  
C217     C      0.992550000000     0.466050000000     0.663570000000    -0.0290579  
C218     C      0.999760000000     0.518310000000     0.826300000000    -0.0289121  
C219     C      0.007150000000     0.461110000000     0.862880000000    -0.0106298  
C220     C      0.986300000000     0.517100000000     0.859410000000    -0.00968295 
C221     C      0.976420000000     0.489970000000     0.759510000000    -0.0531187  
C222     C      0.036060000000     0.487290000000     0.732640000000    -0.0531171  
C223     C      0.002820000000     0.487750000000     0.778900000000     0.0617684  
C224     C      0.018590000000     0.465030000000     0.829200000000    -0.0285321  
C225     C      0.009590000000     0.488350000000     0.713260000000     0.0620272  
C226     C      0.013270000000     0.518870000000     0.665630000000    -0.0402562  
C227     C      0.979680000000     0.490840000000     0.727020000000    -0.0557743  
C228     C      0.025020000000     0.517270000000     0.631600000000     0.0338553  
C229     C      0.002880000000     0.461760000000     0.629660000000    -0.00930355 
C230     C      0.032850000000     0.487530000000     0.765170000000    -0.0554419  
C231     C      0.006170000000     0.486910000000     0.327230000000    -0.0295768  
C232     C      0.956420000000     0.476250000000     0.163960000000    -0.0286782  
C233     C      0.007900000000     0.510650000000     0.134960000000    -0.00965289 
C234     C      0.953430000000     0.486230000000     0.129740000000    -0.0105593  
C235     C      0.975410000000     0.521920000000     0.233290000000    -0.0532109  
C236     C      0.975560000000     0.463190000000     0.261890000000    -0.0529688  
C237     C      0.975610000000     0.494950000000     0.214650000000     0.0617961  
C238     C      0.008330000000     0.498510000000     0.168590000000    -0.0288085  
C239     C      0.974580000000     0.490150000000     0.280520000000     0.0618119  
C240     C      0.953870000000     0.508640000000     0.330850000000    -0.0398592  
C241     C      0.975470000000     0.519680000000     0.265890000000    -0.0553854  
C242     C      0.950340000000     0.498850000000     0.365320000000     0.0328062  
C243     C      0.005230000000     0.475030000000     0.360930000000    -0.00829971 
C244     C      0.976660000000     0.465440000000     0.229310000000    -0.0555644  
C245     C      0.957450000000     0.833300000000     0.502510000000    -0.0292721  
C246     C      0.007910000000     0.669870000000     0.501110000000    -0.0290359  
C247     C      0.953690000000     0.631580000000     0.484760000000    -0.0104733  
C248     C      0.005180000000     0.636830000000     0.514630000000    -0.00948279 
C249     C      0.977270000000     0.736230000000     0.518160000000    -0.0531644  
C250     C      0.977790000000     0.762520000000     0.458440000000    -0.0529904  
C251     C      0.977090000000     0.716500000000     0.491980000000     0.0617226  
C252     C      0.958590000000     0.665180000000     0.473520000000    -0.0287073  
C253     C      0.976960000000     0.782240000000     0.484610000000     0.0618715  
C254     C      0.007710000000     0.829250000000     0.476340000000    -0.0403939  
C255     C      0.977880000000     0.768740000000     0.514660000000    -0.0554327  
C256     C      0.005250000000     0.862630000000     0.463010000000     0.0340531  
C257     C      0.952550000000     0.866880000000     0.491200000000    -0.00902676 
C258     C      0.978510000000     0.730020000000     0.461960000000    -0.0552224  
C259     C      0.031020000000     0.333030000000     0.471360000000    -0.0293043  
C260     C      0.981590000000     0.169020000000     0.471270000000    -0.0291335  
C261     C      0.037010000000     0.131190000000     0.484090000000    -0.010332   
C262     C      0.983720000000     0.135790000000     0.458110000000    -0.00938406 
C263     C      0.012190000000     0.236060000000     0.453450000000    -0.0533355  
C264     C      0.011530000000     0.260940000000     0.513790000000    -0.0529626  
C265     C      0.012420000000     0.215780000000     0.479190000000     0.0620813  
C266     C      0.032870000000     0.164740000000     0.495610000000    -0.028678   
C267     C      0.012320000000     0.281230000000     0.488080000000     0.062125   
C268     C      0.981200000000     0.327610000000     0.498010000000    -0.0403583  
C269     C      0.011500000000     0.268470000000     0.457710000000    -0.0553598  
C270     C      0.983610000000     0.360320000000     0.512790000000     0.0342234  
C271     C      0.035860000000     0.366210000000     0.483800000000    -0.00881384 
C272     C      0.010890000000     0.228560000000     0.509510000000    -0.0554259  
C273     C      0.823710000000     0.988150000000     0.506080000000    -0.0293223  
C274     C      0.659950000000     0.024400000000     0.464690000000    -0.0288394  
C275     C      0.631330000000     0.971270000000     0.496580000000    -0.0104348  
C276     C      0.626510000000     0.014550000000     0.455990000000    -0.0101144  
C277     C      0.732440000000     0.985940000000     0.461370000000    -0.0533598  
C278     C      0.754280000000     0.029720000000     0.504780000000    -0.0531447  
C279     C      0.710900000000     0.003420000000     0.478830000000     0.0620384  
C280     C      0.664220000000     0.983400000000     0.503600000000    -0.0284417  
C281     C      0.775810000000     0.011980000000     0.487560000000     0.0621323  
C282     C      0.825650000000     0.027610000000     0.465340000000    -0.0399999  
C283     C      0.764650000000     0.990110000000     0.465610000000    -0.0559746  
C284     C      0.859380000000     0.037020000000     0.473910000000     0.0334758  
C285     C      0.857070000000     0.995640000000     0.516880000000    -0.00881687 
C286     C      0.722060000000     0.025530000000     0.500560000000    -0.0558579  
C287     C      0.161690000000     0.962790000000     0.476960000000    -0.0292142  
C288     C      0.325270000000     0.995870000000     0.516660000000    -0.0288773  
C289     C      0.359550000000     0.947600000000     0.482730000000    -0.0100476  
C290     C      0.358740000000     0.987750000000     0.526320000000    -0.0100728  
C291     C      0.255300000000     0.956140000000     0.517020000000    -0.0534989  
C292     C      0.233200000000     0.000810000000     0.474660000000    -0.0529445  
C293     C      0.276710000000     0.973200000000     0.498940000000     0.0619449  
C294     C      0.325790000000     0.957160000000     0.475080000000    -0.0290567  
C295     C      0.211820000000     0.983870000000     0.492820000000     0.0621726  
C296     C      0.163910000000     0.002070000000     0.517550000000    -0.039849   
C297     C      0.223070000000     0.961350000000     0.514050000000    -0.0560764  
C298     C      0.130960000000     0.014580000000     0.509870000000     0.0334446  
C299     C      0.128820000000     0.972750000000     0.466840000000    -0.00873666 
C300     C      0.265390000000     0.995630000000     0.477630000000    -0.0559205  
C301     C      0.993750000000     0.665390000000     0.975140000000    -0.0296917  
C302     C      0.992180000000     0.829620000000     0.022630000000    -0.0286187  
C303     C      0.024170000000     0.859400000000     0.970240000000    -0.00948717 
C304     C      0.003100000000     0.863510000000     0.025610000000    -0.0103965  
C305     C      0.033890000000     0.759080000000     0.002390000000    -0.0532857  
C306     C      0.973680000000     0.733390000000     0.002000000000    -0.0529581  
C307     C      0.007810000000     0.779000000000     0.001380000000     0.0618281  
C308     C      0.011860000000     0.825720000000     0.969540000000    -0.0293446  
C309     C      0.999710000000     0.713490000000     0.004180000000     0.0619575  
C310     C      0.015580000000     0.663260000000     0.027320000000    -0.0396709  
C311     C      0.030020000000     0.726600000000     0.003210000000    -0.0554567  
C312     C      0.003660000000     0.629700000000     0.032800000000     0.0327201  
C313     C      0.979710000000     0.632600000000     0.977960000000    -0.00843873 
C314     C      0.977580000000     0.765780000000     0.000010000000    -0.0553666  
C315     C      0.962180000000     0.328330000000     0.016560000000    -0.0291646  
C316     C      0.012270000000     0.164310000000     0.008430000000    -0.02871    
C317     C      0.956010000000     0.128100000000     0.994470000000    -0.0109225  
C318     C      0.009930000000     0.130340000000     0.019550000000    -0.00979184 
C319     C      0.981520000000     0.230750000000     0.031010000000    -0.0534905  
C320     C      0.984960000000     0.259020000000     0.972270000000    -0.0526874  
C321     C      0.982080000000     0.211950000000     0.004160000000     0.0621192  
C322     C      0.960440000000     0.162360000000     0.985110000000    -0.0288732  
C323     C      0.983270000000     0.277840000000     0.999040000000     0.0614953  
C324     C      0.014780000000     0.325020000000     0.995660000000    -0.0404781  
C325     C      0.982680000000     0.263360000000     0.028630000000    -0.0551685  
C326     C      0.013610000000     0.358530000000     0.982520000000     0.0337147  
C327     C      0.958210000000     0.362190000000     0.005660000000    -0.00880068 
C328     C      0.984970000000     0.226410000000     0.974700000000    -0.0559106  
C329     C      0.666970000000     0.008250000000     0.973780000000    -0.029327   
C330     C      0.830560000000     0.964940000000     0.005930000000    -0.0283155  
C331     C      0.861460000000     0.997820000000     0.954790000000    -0.0105418  
C332     C      0.863920000000     0.955770000000     0.996410000000    -0.0109482  
C333     C      0.758410000000     0.963880000000     0.968150000000    -0.0533795  
C334     C      0.737670000000     0.006910000000     0.012830000000    -0.052755   
C335     C      0.780410000000     0.981350000000     0.985080000000     0.0614035  
C336     C      0.828200000000     0.005290000000     0.966000000000    -0.0286679  
C337     C      0.715670000000     0.989570000000     0.995780000000     0.0614459  
C338     C      0.666190000000     0.967000000000     0.012650000000    -0.0396186  
C339     C      0.726290000000     0.967890000000     0.973360000000    -0.0558594  
C340     C      0.632810000000     0.975610000000     0.023430000000     0.0329805  
C341     C      0.634040000000     0.019270000000     0.982630000000    -0.00903564 
C342     C      0.769780000000     0.002930000000     0.007600000000    -0.0555642  
C343     C      0.165610000000     0.975670000000     0.962860000000    -0.029459   
C344     C      0.327630000000     0.013410000000     0.010920000000    -0.0285628  
C345     C      0.361780000000     0.962040000000     0.981780000000    -0.0103005  
C346     C      0.360650000000     0.005220000000     0.022470000000    -0.0100051  
C347     C      0.256820000000     0.973230000000     0.009050000000    -0.0531158  
C348     C      0.237190000000     0.015530000000     0.963190000000    -0.0529516  
C349     C      0.279230000000     0.990310000000     0.992260000000     0.0615424  
C350     C      0.328930000000     0.972250000000     0.971850000000    -0.0286522  
C351     C      0.214780000000     0.998460000000     0.979990000000     0.0615845  
C352     C      0.165830000000     0.018000000000     0.000700000000    -0.039504   
C353     C      0.224850000000     0.977240000000     0.003090000000    -0.0556325  
C354     C      0.132660000000     0.028530000000     0.991420000000     0.0330392  
C355     C      0.132530000000     0.984060000000     0.951650000000    -0.00880824 
C356     C      0.269160000000     0.011570000000     0.969190000000    -0.0557381  
C357     C      0.007820000000     0.030640000000     0.653690000000    -0.0291275  
C358     C      0.999880000000     0.978460000000     0.816330000000    -0.0289364  
C359     C      0.990510000000     0.034650000000     0.853940000000    -0.0106498  
C360     C      0.012890000000     0.979460000000     0.849620000000    -0.00968276 
C361     C      0.022620000000     0.007940000000     0.750190000000    -0.0531343  
C362     C      0.963100000000     0.010530000000     0.723100000000    -0.0531235  
C363     C      0.996120000000     0.009760000000     0.769500000000     0.0617028  
C364     C      0.979470000000     0.031160000000     0.820100000000    -0.0286115  
C365     C      0.989650000000     0.009820000000     0.703810000000     0.0620161  
C366     C      0.983870000000     0.979310000000     0.656390000000    -0.0403084  
C367     C      0.019510000000     0.007360000000     0.717690000000    -0.0556622  
C368     C      0.971270000000     0.981550000000     0.622730000000     0.0337629  
C369     C      0.997150000000     0.035520000000     0.619940000000    -0.00925308 
C370     C      0.966150000000     0.009930000000     0.755620000000    -0.0554126  
C371     C      0.974660000000     0.991810000000     0.155860000000    -0.0296416  
C372     C      0.022920000000     0.981110000000     0.319440000000    -0.0285497  
C373     C      0.974150000000     0.017850000000     0.350130000000    -0.00938267 
C374     C      0.027650000000     0.991220000000     0.353320000000    -0.0104263  
C375     C      0.005150000000     0.026710000000     0.250460000000    -0.0533883  
C376     C      0.000750000000     0.967640000000     0.222910000000    -0.0527992  
C377     C      0.002860000000     0.000140000000     0.269500000000     0.0622791  
C378     C      0.971890000000     0.005760000000     0.316550000000    -0.0288729  
C379     C      0.004280000000     0.994090000000     0.203900000000     0.0620645  
C380     C      0.028380000000     0.010050000000     0.154310000000    -0.0397386  
C381     C      0.005270000000     0.023890000000     0.217940000000    -0.055436   
C382     C      0.033080000000     0.998870000000     0.120480000000     0.0329869  
C383     C      0.976480000000     0.978770000000     0.122650000000    -0.00792572 
C384     C      0.999430000000     0.970560000000     0.255380000000    -0.0558793  
H1       H      0.448620000000     0.487140000000     0.713940000000     0.042075   
H2       H      0.506540000000     0.435230000000     0.819660000000     0.0361466  
H3       H      0.469820000000     0.527500000000     0.814790000000     0.0401294  
H4       H      0.512340000000     0.436710000000     0.633660000000     0.0402144  
H5       H      0.471090000000     0.439090000000     0.863290000000     0.0419468  
H6       H      0.526560000000     0.523170000000     0.681560000000     0.0352291  
H7       H      0.477070000000     0.437110000000     0.677720000000     0.0359988  
H8       H      0.523620000000     0.527790000000     0.623190000000     0.0439165  
H9       H      0.473210000000     0.531490000000     0.873720000000     0.0374054  
H10      H      0.441270000000     0.485930000000     0.770520000000     0.0464733  
H11      H      0.510340000000     0.439210000000     0.878050000000     0.0454339  
H12      H      0.548520000000     0.477240000000     0.726590000000     0.0451007  
H13      H      0.529590000000     0.467940000000     0.833430000000     0.0384924  
H14      H      0.473150000000     0.441540000000     0.619410000000     0.0458449  
H15      H      0.486900000000     0.522360000000     0.666970000000     0.0400269  
H16      H      0.458290000000     0.472550000000     0.664250000000     0.0390509  
H17      H      0.541430000000     0.479170000000     0.783200000000     0.0417584  
H18      H      0.508060000000     0.520630000000     0.830610000000     0.0421408  
H19      H      0.546670000000     0.495210000000     0.636580000000     0.0418907  
H20      H      0.542550000000     0.485830000000     0.283610000000     0.0421819  
H21      H      0.480870000000     0.442140000000     0.178690000000     0.0363129  
H22      H      0.522430000000     0.532340000000     0.182330000000     0.0400849  
H23      H      0.474020000000     0.440400000000     0.363110000000     0.0404898  
H24      H      0.515660000000     0.443580000000     0.134500000000     0.0421993  
H25      H      0.469380000000     0.529660000000     0.317480000000     0.0351974  
H26      H      0.508920000000     0.438580000000     0.318880000000     0.0360596  
H27      H      0.472400000000     0.532210000000     0.375870000000     0.0444251  
H28      H      0.518070000000     0.536060000000     0.123140000000     0.0362344  
H29      H      0.549420000000     0.485720000000     0.226900000000     0.0467157  
H30      H      0.476250000000     0.445990000000     0.120410000000     0.0458528  
H31      H      0.442120000000     0.488140000000     0.271500000000     0.0450642  
H32      H      0.459420000000     0.475940000000     0.165060000000     0.0383191  
H33      H      0.513470000000     0.441250000000     0.377460000000     0.0458418  
H34      H      0.508590000000     0.523890000000     0.332160000000     0.0402021  
H35      H      0.531440000000     0.471380000000     0.333240000000     0.0389495  
H36      H      0.449130000000     0.491050000000     0.214870000000     0.0417782  
H37      H      0.483650000000     0.527340000000     0.167140000000     0.0413969  
H38      H      0.445870000000     0.502900000000     0.361460000000     0.0420078  
H39      H      0.537950000000     0.701850000000     0.466520000000     0.0422323  
H40      H      0.477780000000     0.805480000000     0.451520000000     0.0360388  
H41      H      0.544950000000     0.809520000000     0.524630000000     0.0407405  
H42      H      0.450000000000     0.627880000000     0.497600000000     0.0410044  
H43      H      0.509550000000     0.850790000000     0.440350000000     0.0425175  
H44      H      0.530650000000     0.670410000000     0.539460000000     0.0359201  
H45      H      0.463910000000     0.672430000000     0.466090000000     0.0357239  
H46      H      0.533730000000     0.611820000000     0.535290000000     0.0453151  
H47      H      0.538110000000     0.868400000000     0.526960000000     0.0379387  
H48      H      0.545490000000     0.758280000000     0.458740000000     0.0467356  
H49      H      0.471580000000     0.863590000000     0.452940000000     0.0453915  
H50      H      0.464830000000     0.720820000000     0.533500000000     0.0457455  
H51      H      0.466580000000     0.820380000000     0.489350000000     0.0388023  
H52      H      0.466620000000     0.613970000000     0.461680000000     0.0452898  
H53      H      0.541440000000     0.656460000000     0.501160000000     0.0389893  
H54      H      0.502790000000     0.657560000000     0.458700000000     0.0388556  
H55      H      0.472450000000     0.777210000000     0.525830000000     0.0419205  
H56      H      0.505760000000     0.822970000000     0.531310000000     0.0407615  
H57      H      0.496690000000     0.626380000000     0.548840000000     0.0414144  
H58      H      0.453130000000     0.273870000000     0.469170000000     0.0419267  
H59      H      0.513660000000     0.172450000000     0.462290000000     0.0359401  
H60      H      0.445190000000     0.167400000000     0.534020000000     0.040677   
H61      H      0.538030000000     0.350560000000     0.503630000000     0.0415755  
H62      H      0.483590000000     0.126560000000     0.449970000000     0.0429392  
H63      H      0.453540000000     0.309140000000     0.539730000000     0.0358325  
H64      H      0.527410000000     0.304150000000     0.473690000000     0.0357428  
H65      H      0.450480000000     0.367340000000     0.532110000000     0.0451953  
H66      H      0.453530000000     0.108300000000     0.536630000000     0.0372846  
H67      H      0.446380000000     0.217050000000     0.464080000000     0.0466849  
H68      H      0.521100000000     0.114480000000     0.464470000000     0.0451912  
H69      H      0.520990000000     0.259240000000     0.542450000000     0.0457203  
H70      H      0.524010000000     0.157980000000     0.500510000000     0.0384025  
H71      H      0.524370000000     0.362470000000     0.465810000000     0.0447124  
H72      H      0.446730000000     0.321020000000     0.499860000000     0.0384352  
H73      H      0.489350000000     0.318050000000     0.461730000000     0.038407   
H74      H      0.514410000000     0.202400000000     0.537170000000     0.0417925  
H75      H      0.484520000000     0.154690000000     0.541180000000     0.0401213  
H76      H      0.485850000000     0.353980000000     0.550400000000     0.041442   
H77      H      0.527980000000     0.775240000000     0.961000000000     0.0418521  
H78      H      0.530700000000     0.674360000000     0.026770000000     0.0364297  
H79      H      0.459610000000     0.673020000000     0.957500000000     0.040568   
H80      H      0.495160000000     0.857670000000     0.040850000000     0.0422368  
H81      H      0.541240000000     0.627320000000     0.998190000000     0.0443001  
H82      H      0.457770000000     0.811550000000     0.959190000000     0.0357386  
H83      H      0.524430000000     0.810450000000     0.032580000000     0.0357973  
H84      H      0.466480000000     0.869530000000     0.952360000000     0.0447814  
H85      H      0.453780000000     0.614250000000     0.965720000000     0.0376591  
H86      H      0.531580000000     0.718010000000     0.957440000000     0.046869   
H87      H      0.524160000000     0.616320000000     0.034820000000     0.0453308  
H88      H      0.454520000000     0.766330000000     0.029670000000     0.0457772  
H89      H      0.491370000000     0.662350000000     0.036480000000     0.0380042  
H90      H      0.532860000000     0.868430000000     0.025750000000     0.0449924  
H91      H      0.497860000000     0.822520000000     0.951580000000     0.0380681  
H92      H      0.536150000000     0.821920000000     0.993750000000     0.0379684  
H93      H      0.458280000000     0.709070000000     0.026250000000     0.0417736  
H94      H      0.451360000000     0.660770000000     0.996630000000     0.0399414  
H95      H      0.447340000000     0.858540000000     0.987990000000     0.0418959  
H96      H      0.473780000000     0.281250000000     0.959340000000     0.042404   
H97      H      0.532110000000     0.173180000000     0.950570000000     0.0364014  
H98      H      0.456180000000     0.175800000000     0.014660000000     0.0409979  
H99      H      0.554200000000     0.355490000000     0.005820000000     0.0412662  
H100     H      0.499010000000     0.129620000000     0.936420000000     0.0435104  
H101     H      0.471560000000     0.308300000000     0.034890000000     0.0362589  
H102     H      0.546690000000     0.312290000000     0.970100000000     0.0358805  
H103     H      0.466880000000     0.366670000000     0.033810000000     0.0463282  
H104     H      0.458220000000     0.116840000000     0.018920000000     0.03907    
H105     H      0.466280000000     0.225160000000     0.949350000000     0.0469305  
H106     H      0.533990000000     0.114670000000     0.954180000000     0.0458756  
H107     H      0.538000000000     0.259370000000     0.034050000000     0.0458871  
H108     H      0.537440000000     0.158740000000     0.989820000000     0.0390135  
H109     H      0.542730000000     0.370720000000     0.968440000000     0.045719   
H110     H      0.464600000000     0.323910000000     0.996330000000     0.039626   
H111     H      0.508520000000     0.326260000000     0.958470000000     0.0393019  
H112     H      0.530470000000     0.203300000000     0.024100000000     0.0422675  
H113     H      0.493150000000     0.159880000000     0.026490000000     0.0414502  
H114     H      0.503230000000     0.352780000000     0.049750000000     0.0409386  
H115     H      0.501710000000     0.034110000000     0.708650000000     0.0419677  
H116     H      0.451850000000     0.972370000000     0.811380000000     0.0361469  
H117     H      0.544030000000     0.009810000000     0.810100000000     0.0398686  
H118     H      0.453860000000     0.966730000000     0.628150000000     0.0407735  
H119     H      0.452920000000     0.006250000000     0.856000000000     0.0427184  
H120     H      0.544250000000     0.965230000000     0.672630000000     0.0353545  
H121     H      0.450890000000     0.999320000000     0.673820000000     0.0360316  
H122     H      0.545960000000     0.971750000000     0.614140000000     0.0435496  
H123     H      0.545910000000     0.005710000000     0.869240000000     0.0363344  
H124     H      0.500000000000     0.039860000000     0.765520000000     0.046618   
H125     H      0.454710000000     0.966850000000     0.869980000000     0.0453317  
H126     H      0.498750000000     0.933730000000     0.718680000000     0.0453799  
H127     H      0.484520000000     0.949560000000     0.825590000000     0.0376663  
H128     H      0.452640000000     0.006680000000     0.615590000000     0.0458905  
H129     H      0.536030000000     0.004590000000     0.659870000000     0.039284   
H130     H      0.482240000000     0.024210000000     0.660160000000     0.0384147  
H131     H      0.499930000000     0.939420000000     0.775580000000     0.0416646  
H132     H      0.536700000000     0.971500000000     0.825310000000     0.0412552  
H133     H      0.519140000000     0.942280000000     0.627570000000     0.0424578  
H134     H      0.535330000000     0.998190000000     0.278060000000     0.0422333  
H135     H      0.516200000000     0.956660000000     0.176030000000     0.035632   
H136     H      0.478150000000     0.048380000000     0.172110000000     0.0409093  
H137     H      0.439930000000     0.977530000000     0.354110000000     0.0417825  
H138     H      0.541390000000     0.981300000000     0.131900000000     0.0443988  
H139     H      0.498350000000     0.047070000000     0.313890000000     0.0362696  
H140     H      0.464140000000     0.954000000000     0.308570000000     0.0353911  
H141     H      0.503270000000     0.042370000000     0.372100000000     0.0459051  
H142     H      0.474230000000     0.043440000000     0.112960000000     0.0386553  
H143     H      0.543770000000     0.000800000000     0.221590000000     0.0462035  
H144     H      0.514120000000     0.952630000000     0.117740000000     0.0442861  
H145     H      0.435300000000     0.001140000000     0.263390000000     0.0454684  
H146     H      0.477480000000     0.963130000000     0.160400000000     0.039385   
H147     H      0.468030000000     0.948850000000     0.366810000000     0.0442894  
H148     H      0.523060000000     0.015200000000     0.326620000000     0.0392054  
H149     H      0.503190000000     0.961090000000     0.323150000000     0.0399787  
H150     H      0.443690000000     0.000840000000     0.206840000000     0.0417716  
H151     H      0.456200000000     0.015730000000     0.157530000000     0.0403101  
H152     H      0.463740000000     0.040530000000     0.358030000000     0.0404446  
H153     H      0.781270000000     0.486050000000     0.457760000000     0.0424609  
H154     H      0.676150000000     0.444570000000     0.474060000000     0.0355478  
H155     H      0.676270000000     0.535600000000     0.513900000000     0.0409748  
H156     H      0.858170000000     0.474360000000     0.554410000000     0.0416693  
H157     H      0.633170000000     0.472040000000     0.449360000000     0.0436405  
H158     H      0.811640000000     0.538060000000     0.494340000000     0.0363546  
H159     H      0.815420000000     0.445600000000     0.530350000000     0.0355005  
H160     H      0.870130000000     0.539780000000     0.490940000000     0.0457833  
H161     H      0.616960000000     0.533830000000     0.517000000000     0.0387739  
H162     H      0.724680000000     0.487230000000     0.448450000000     0.0460612  
H163     H      0.617350000000     0.443350000000     0.475640000000     0.0435943  
H164     H      0.764880000000     0.488130000000     0.557220000000     0.0453275  
H165     H      0.660500000000     0.450800000000     0.512720000000     0.0395937  
H166     H      0.874310000000     0.446500000000     0.527300000000     0.0439751  
H167     H      0.828210000000     0.507290000000     0.470520000000     0.0400581  
H168     H      0.829790000000     0.453230000000     0.491440000000     0.040346   
H169     H      0.708330000000     0.486130000000     0.547960000000     0.0418169  
H170     H      0.659800000000     0.503320000000     0.535070000000     0.0408209  
H171     H      0.855510000000     0.536290000000     0.530030000000     0.0397206  
H172     H      0.279310000000     0.505930000000     0.451510000000     0.041911   
H173     H      0.177450000000     0.470200000000     0.466650000000     0.035275   
H174     H      0.174220000000     0.556620000000     0.515640000000     0.0409226  
H175     H      0.355820000000     0.484950000000     0.548450000000     0.0422032  
H176     H      0.133720000000     0.498860000000     0.444780000000     0.0431932  
H177     H      0.318590000000     0.550760000000     0.483520000000     0.0360327  
H178     H      0.309080000000     0.461690000000     0.526300000000     0.0353123  
H179     H      0.376690000000     0.542950000000     0.479320000000     0.0458012  
H180     H      0.114810000000     0.551570000000     0.519040000000     0.0388907  
H181     H      0.222800000000     0.511020000000     0.444260000000     0.0454239  
H182     H      0.119210000000     0.466630000000     0.467480000000     0.0444185  
H183     H      0.266700000000     0.508570000000     0.551540000000     0.0453972  
H184     H      0.161660000000     0.472010000000     0.505680000000     0.0402951  
H185     H      0.367360000000     0.453620000000     0.522890000000     0.0435724  
H186     H      0.329970000000     0.516010000000     0.462280000000     0.0388615  
H187     H      0.323930000000     0.464560000000     0.486950000000     0.0398775  
H188     H      0.209960000000     0.510500000000     0.544340000000     0.0419669  
H189     H      0.159390000000     0.521580000000     0.533360000000     0.0410305  
H190     H      0.362530000000     0.545890000000     0.518620000000     0.0403969  
H191     H      0.776660000000     0.553290000000     0.975820000000     0.0418891  
H192     H      0.670900000000     0.488060000000     0.931800000000     0.0361601  
H193     H      0.680390000000     0.526470000000     0.022880000000     0.0403806  
H194     H      0.864510000000     0.492720000000     0.935400000000     0.0412819  
H195     H      0.624810000000     0.519810000000     0.938840000000     0.0422037  
H196     H      0.808620000000     0.479070000000     0.019590000000     0.035265   
H197     H      0.818940000000     0.525300000000     0.932490000000     0.0358582  
H198     H      0.866330000000     0.482800000000     0.028670000000     0.0442066  
H199     H      0.622260000000     0.518500000000     0.031780000000     0.0374885  
H200     H      0.719510000000     0.557200000000     0.975340000000     0.0465396  
H201     H      0.613360000000     0.479590000000     0.940790000000     0.045573   
H202     H      0.769710000000     0.452590000000     0.973370000000     0.0452261  
H203     H      0.661690000000     0.464590000000     0.965710000000     0.038352   
H204     H      0.877170000000     0.531820000000     0.943450000000     0.045294   
H205     H      0.823120000000     0.518640000000     0.017910000000     0.0398947  
H206     H      0.828650000000     0.545250000000     0.968410000000     0.0377917  
H207     H      0.712720000000     0.456460000000     0.975840000000     0.0417966  
H208     H      0.667070000000     0.487090000000     0.017710000000     0.0420979  
H209     H      0.855560000000     0.457740000000     0.996740000000     0.0426436  
H210     H      0.211470000000     0.443760000000     0.001040000000     0.0419583  
H211     H      0.314750000000     0.507210000000     0.954890000000     0.0365781  
H212     H      0.313770000000     0.464750000000     0.044610000000     0.0398461  
H213     H      0.131340000000     0.510020000000     0.953790000000     0.0407483  
H214     H      0.359250000000     0.472770000000     0.954620000000     0.0429698  
H215     H      0.176370000000     0.517270000000     0.043390000000     0.0350662  
H216     H      0.175920000000     0.475570000000     0.953420000000     0.036123   
H217     H      0.117670000000     0.513620000000     0.045570000000     0.0438583  
H218     H      0.373210000000     0.469250000000     0.046690000000     0.0359461  
H219     H      0.268430000000     0.437680000000     0.000070000000     0.0467661  
H220     H      0.373280000000     0.512110000000     0.957230000000     0.0467625  
H221     H      0.222250000000     0.544150000000     0.001570000000     0.0450417  
H222     H      0.329240000000     0.528280000000     0.988530000000     0.0382617  
H223     H      0.117200000000     0.470620000000     0.955820000000     0.0460778  
H224     H      0.161990000000     0.477910000000     0.038420000000     0.0397056  
H225     H      0.161410000000     0.453900000000     0.986680000000     0.0385606  
H226     H      0.279180000000     0.537990000000     0.003710000000     0.0418954  
H227     H      0.328720000000     0.503550000000     0.039560000000     0.0414081  
H228     H      0.132210000000     0.539840000000     0.016130000000     0.0423663  
H229     H      0.053810000000     0.487120000000     0.779370000000     0.0419132  
H230     H      0.992610000000     0.442770000000     0.675230000000     0.0367681  
H231     H      0.027990000000     0.535530000000     0.679320000000     0.0402055  
H232     H      0.985390000000     0.446770000000     0.862660000000     0.0419955  
H233     H      0.024930000000     0.447880000000     0.629410000000     0.0428735  
H234     H      0.985580000000     0.535250000000     0.812480000000     0.0351995  
H235     H      0.018290000000     0.441740000000     0.817570000000     0.0363422  
H236     H      0.990300000000     0.540180000000     0.870750000000     0.0438959  
H237     H      0.020440000000     0.540460000000     0.620700000000     0.0367592  
H238     H      0.059270000000     0.486290000000     0.722430000000     0.0467003  
H239     H      0.984780000000     0.447700000000     0.617330000000     0.0467399  
H240     H      0.953210000000     0.491150000000     0.769700000000     0.0455182  
H241     H      0.968110000000     0.475200000000     0.663640000000     0.0386309  
H242     H      0.025110000000     0.447710000000     0.876150000000     0.046014   
H243     H      0.024400000000     0.526950000000     0.826930000000     0.0391631  
H244     H      0.043240000000     0.473580000000     0.829760000000     0.0377279  
H245     H      0.958820000000     0.493010000000     0.712830000000     0.0419994  
H246     H      0.988910000000     0.528300000000     0.665890000000     0.041463   
H247     H      0.960530000000     0.513450000000     0.857920000000     0.0428876  
H248     H      0.978110000000     0.444120000000     0.215790000000     0.0416859  
H249     H      0.021920000000     0.471240000000     0.313600000000     0.0355329  
H250     H      0.930460000000     0.509990000000     0.319330000000     0.0409159  
H251     H      0.002600000000     0.536130000000     0.135290000000     0.0435739  
H252     H      0.999770000000     0.449590000000     0.360710000000     0.0436563  
H253     H      0.932560000000     0.475450000000     0.174470000000     0.0360935  
H254     H      0.023690000000     0.514190000000     0.182640000000     0.0353482  
H255     H      0.941770000000     0.467060000000     0.116560000000     0.0452763  
H256     H      0.938780000000     0.518540000000     0.377810000000     0.0383338  
H257     H      0.975850000000     0.440310000000     0.272760000000     0.0458195  
H258     H      0.029020000000     0.477860000000     0.371220000000     0.0444554  
H259     H      0.975540000000     0.544800000000     0.222430000000     0.0457691  
H260     H      0.016230000000     0.510960000000     0.326530000000     0.0395534  
H261     H      0.031750000000     0.507730000000     0.124830000000     0.043916   
H262     H      0.966530000000     0.452250000000     0.164660000000     0.0376087  
H263     H      0.018550000000     0.474530000000     0.169300000000     0.0390886  
H264     H      0.976010000000     0.541020000000     0.279440000000     0.0418697  
H265     H      0.964010000000     0.532640000000     0.330420000000     0.0401469  
H266     H      0.937760000000     0.507000000000     0.128500000000     0.0418272  
H267     H      0.979630000000     0.715730000000     0.441150000000     0.0419049  
H268     H      0.934090000000     0.822110000000     0.505590000000     0.0362083  
H269     H      0.022640000000     0.814560000000     0.460760000000     0.0398443  
H270     H      0.936270000000     0.631780000000     0.504100000000     0.040701   
H271     H      0.936020000000     0.866490000000     0.471110000000     0.0421356  
H272     H      0.021810000000     0.684300000000     0.517770000000     0.0352823  
H273     H      0.935230000000     0.676110000000     0.469650000000     0.0359048  
H274     H      0.028970000000     0.626160000000     0.515230000000     0.0447061  
H275     H      0.029020000000     0.873290000000     0.464380000000     0.0365333  
H276     H      0.978030000000     0.772490000000     0.435160000000     0.0463885  
H277     H      0.941050000000     0.880390000000     0.510220000000     0.0455551  
H278     H      0.977090000000     0.726280000000     0.541440000000     0.045089   
H279     H      0.969380000000     0.834150000000     0.525640000000     0.0382036  
H280     H      0.943350000000     0.617750000000     0.465310000000     0.0455514  
H281     H      0.020760000000     0.669210000000     0.478450000000     0.0401322  
H282     H      0.971280000000     0.664420000000     0.450790000000     0.0382915  
H283     H      0.978530000000     0.783040000000     0.535480000000     0.0416879  
H284     H      0.019660000000     0.830070000000     0.499490000000     0.0417292  
H285     H      0.996620000000     0.638480000000     0.539120000000     0.0426866  
H286     H      0.009680000000     0.213780000000     0.529960000000     0.0422628  
H287     H      0.054410000000     0.322130000000     0.467530000000     0.0360842  
H288     H      0.966480000000     0.312150000000     0.513050000000     0.0398657  
H289     H      0.052000000000     0.131570000000     0.462830000000     0.0409599  
H290     H      0.053040000000     0.365300000000     0.503320000000     0.0422179  
H291     H      0.966750000000     0.183190000000     0.455200000000     0.0355192  
H292     H      0.056410000000     0.175800000000     0.497660000000     0.036422   
H293     H      0.959910000000     0.125160000000     0.458540000000     0.0450147  
H294     H      0.959790000000     0.370910000000     0.512120000000     0.0367227  
H295     H      0.011180000000     0.270350000000     0.537290000000     0.0465828  
H296     H      0.046550000000     0.380600000000     0.464950000000     0.0452641  
H297     H      0.012420000000     0.226630000000     0.429960000000     0.0452932  
H298     H      0.018720000000     0.334550000000     0.448460000000     0.0379906  
H299     H      0.049770000000     0.117630000000     0.502260000000     0.0466483  
H300     H      0.970030000000     0.168590000000     0.494620000000     0.0405881  
H301     H      0.021980000000     0.163880000000     0.519230000000     0.0392654  
H302     H      0.010830000000     0.283280000000     0.437240000000     0.0417143  
H303     H      0.969040000000     0.329370000000     0.475020000000     0.0419016  
H304     H      0.991480000000     0.137070000000     0.433330000000     0.0420071  
H305     H      0.705900000000     0.039150000000     0.514540000000     0.0420101  
H306     H      0.810170000000     0.979490000000     0.526580000000     0.0363409  
H307     H      0.813070000000     0.047850000000     0.454690000000     0.0407785  
H308     H      0.633280000000     0.950460000000     0.481090000000     0.042403   
H309     H      0.855750000000     0.010880000000     0.537900000000     0.0434734  
H310     H      0.671200000000     0.034940000000     0.443710000000     0.0359165  
H311     H      0.678740000000     0.963410000000     0.511910000000     0.0360687  
H312     H      0.612510000000     0.035970000000     0.451200000000     0.0447384  
H313     H      0.872000000000     0.041470000000     0.451620000000     0.0383397  
H314     H      0.762540000000     0.046610000000     0.521760000000     0.0467415  
H315     H      0.868550000000     0.973420000000     0.524060000000     0.0456035  
H316     H      0.724190000000     0.968710000000     0.444730000000     0.0460395  
H317     H      0.824580000000     0.969090000000     0.488350000000     0.0388055  
H318     H      0.620610000000     0.963390000000     0.518920000000     0.0463921  
H319     H      0.658890000000     0.042590000000     0.483300000000     0.0384059  
H320     H      0.662980000000     0.001040000000     0.522730000000     0.0389613  
H321     H      0.780790000000     0.976070000000     0.452040000000     0.0420244  
H322     H      0.826690000000     0.008950000000     0.447190000000     0.0408449  
H323     H      0.627400000000     0.000690000000     0.434020000000     0.0418386  
H324     H      0.281410000000     0.009280000000     0.463530000000     0.0424674  
H325     H      0.174000000000     0.952860000000     0.456270000000     0.0360508  
H326     H      0.178520000000     0.020910000000     0.528220000000     0.0405825  
H327     H      0.358980000000     0.925940000000     0.497120000000     0.0408064  
H328     H      0.130720000000     0.986670000000     0.444960000000     0.0435179  
H329     H      0.312410000000     0.004160000000     0.537740000000     0.036133   
H330     H      0.313350000000     0.936480000000     0.465280000000     0.0358908  
H331     H      0.370470000000     0.009560000000     0.534300000000     0.0464669  
H332     H      0.118830000000     0.019150000000     0.532440000000     0.0370234  
H333     H      0.224830000000     0.018190000000     0.458230000000     0.0469665  
H334     H      0.115190000000     0.951290000000     0.461190000000     0.044805   
H335     H      0.263680000000     0.938940000000     0.533610000000     0.0455583  
H336     H      0.159870000000     0.944070000000     0.494990000000     0.0377659  
H337     H      0.371860000000     0.941980000000     0.460520000000     0.0451285  
H338     H      0.325860000000     0.015320000000     0.499340000000     0.0400734  
H339     H      0.326180000000     0.975800000000     0.456900000000     0.0391852  
H340     H      0.206990000000     0.947950000000     0.528320000000     0.0416854  
H341     H      0.161760000000     0.983230000000     0.535420000000     0.0399479  
H342     H      0.357800000000     0.971460000000     0.546570000000     0.0405648  
H343     H      0.956950000000     0.780330000000     0.997910000000     0.0417155  
H344     H      0.978860000000     0.679130000000     0.958740000000     0.0353265  
H345     H      0.017830000000     0.675970000000     0.049970000000     0.0407751  
H346     H      0.049740000000     0.858910000000     0.975300000000     0.0418879  
H347     H      0.954290000000     0.634750000000     0.983380000000     0.043843   
H348     H      0.992610000000     0.818670000000     0.046230000000     0.036352   
H349     H      0.026950000000     0.811870000000     0.953440000000     0.0353423  
H350     H      0.985620000000     0.876600000000     0.039780000000     0.0461635  
H351     H      0.022680000000     0.616610000000     0.044830000000     0.0382329  
H352     H      0.950230000000     0.723650000000     0.001720000000     0.0459806  
H353     H      0.981800000000     0.620820000000     0.954870000000     0.0441063  
H354     H      0.057330000000     0.768830000000     0.002540000000     0.0454522  
H355     H      0.017800000000     0.664010000000     0.965070000000     0.0391868  
H356     H      0.020930000000     0.869920000000     0.946670000000     0.0438503  
H357     H      0.967550000000     0.829680000000     0.014030000000     0.0388907  
H358     H      0.987470000000     0.825360000000     0.960220000000     0.0395475  
H359     H      0.050700000000     0.711980000000     0.003560000000     0.041714   
H360     H      0.039540000000     0.661670000000     0.017090000000     0.0399085  
H361     H      0.025620000000     0.863840000000     0.038720000000     0.041012   
H362     H      0.986840000000     0.212730000000     0.953540000000     0.0422827  
H363     H      0.938690000000     0.316990000000     0.017050000000     0.0361866  
H364     H      0.031430000000     0.310530000000     0.981700000000     0.0400433  
H365     H      0.941210000000     0.127250000000     0.015850000000     0.0405775  
H366     H      0.942950000000     0.362360000000     0.984580000000     0.0425089  
H367     H      0.027730000000     0.177220000000     0.024960000000     0.03554    
H368     H      0.937040000000     0.173860000000     0.984340000000     0.0360014  
H369     H      0.033560000000     0.119470000000     0.017800000000     0.0452973  
H370     H      0.036890000000     0.369450000000     0.986830000000     0.0364183  
H371     H      0.986390000000     0.269760000000     0.949380000000     0.0466354  
H372     H      0.945600000000     0.375340000000     0.024230000000     0.0451378  
H373     H      0.980280000000     0.220000000000     0.053900000000     0.0452502  
H374     H      0.971730000000     0.328510000000     0.040770000000     0.0374171  
H375     H      0.942930000000     0.115920000000     0.975570000000     0.0456157  
H376     H      0.023250000000     0.165160000000     0.984810000000     0.0401136  
H377     H      0.970750000000     0.162980000000     0.961220000000     0.0388066  
H378     H      0.982620000000     0.277050000000     0.049870000000     0.0415447  
H379     H      0.024050000000     0.325590000000     0.020010000000     0.0415287  
H380     H      0.002950000000     0.130200000000     0.044590000000     0.0418338  
H381     H      0.786260000000     0.016770000000     0.020970000000     0.0421856  
H382     H      0.680330000000     0.028740000000     0.964800000000     0.0361474  
H383     H      0.679460000000     0.955940000000     0.032210000000     0.0407305  
H384     H      0.859860000000     0.982400000000     0.933920000000     0.0407503  
H385     H      0.636140000000     0.040220000000     0.997890000000     0.0430795  
H386     H      0.818600000000     0.943830000000     0.015440000000     0.0359037  
H387     H      0.814480000000     0.014260000000     0.945760000000     0.0357831  
H388     H      0.877030000000     0.948880000000     0.017790000000     0.0459659  
H389     H      0.620060000000     0.953320000000     0.027680000000     0.0379303  
H390     H      0.729850000000     0.023730000000     0.030080000000     0.0467675  
H391     H      0.621810000000     0.026700000000     0.960920000000     0.0455773  
H392     H      0.766220000000     0.947230000000     0.950730000000     0.0455454  
H393     H      0.665260000000     0.990670000000     0.954630000000     0.0385783  
H394     H      0.872870000000     0.020000000000     0.947390000000     0.0455454  
H395     H      0.831720000000     0.982840000000     0.024820000000     0.0392474  
H396     H      0.829310000000     0.024090000000     0.983990000000     0.0391675  
H397     H      0.709780000000     0.954270000000     0.959800000000     0.041739   
H398     H      0.664400000000     0.949150000000     0.993760000000     0.0402471  
H399     H      0.862650000000     0.934930000000     0.980910000000     0.0408286  
H400     H      0.285990000000     0.025030000000     0.955860000000     0.0424112  
H401     H      0.178600000000     0.964980000000     0.942990000000     0.036141   
H402     H      0.179450000000     0.038290000000     0.009900000000     0.0409449  
H403     H      0.359640000000     0.941440000000     0.997520000000     0.0406975  
H404     H      0.134490000000     0.997710000000     0.929610000000     0.0426615  
H405     H      0.314090000000     0.023230000000     0.030880000000     0.0361609  
H406     H      0.316300000000     0.951440000000     0.962540000000     0.035766   
H407     H      0.372880000000     0.027260000000     0.028960000000     0.0457289  
H408     H      0.120470000000     0.035450000000     0.013330000000     0.0392039  
H409     H      0.229780000000     0.032070000000     0.945500000000     0.0468464  
H410     H      0.119850000000     0.962030000000     0.946090000000     0.0449211  
H411     H      0.264220000000     0.956780000000     0.026830000000     0.04576    
H412     H      0.163860000000     0.957930000000     0.981850000000     0.0387103  
H413     H      0.374760000000     0.954370000000     0.960590000000     0.045852   
H414     H      0.329360000000     0.031750000000     0.992510000000     0.0393639  
H415     H      0.330870000000     0.989830000000     0.952730000000     0.0394138  
H416     H      0.208030000000     0.963920000000     0.016570000000     0.0420795  
H417     H      0.163870000000     0.000760000000     0.020150000000     0.0414432  
H418     H      0.358540000000     0.990730000000     0.043950000000     0.0410853  
H419     H      0.945100000000     0.010000000000     0.769690000000     0.0418541  
H420     H      0.009540000000     0.053900000000     0.665250000000     0.0364237  
H421     H      0.968610000000     0.963520000000     0.670520000000     0.0399453  
H422     H      0.012160000000     0.049140000000     0.854170000000     0.0415262  
H423     H      0.976380000000     0.051250000000     0.619980000000     0.0427673  
H424     H      0.014770000000     0.962250000000     0.802370000000     0.0352001  
H425     H      0.979280000000     0.054690000000     0.808960000000     0.0360818  
H426     H      0.009790000000     0.955960000000     0.860350000000     0.0442554  
H427     H      0.974220000000     0.958140000000     0.611740000000     0.0364391  
H428     H      0.939920000000     0.011470000000     0.712800000000     0.0466293  
H429     H      0.016150000000     0.047870000000     0.607110000000     0.0458653  
H430     H      0.045790000000     0.006790000000     0.760480000000     0.0453986  
H431     H      0.031570000000     0.019850000000     0.653340000000     0.0380118  
H432     H      0.972300000000     0.047680000000     0.867230000000     0.0455598  
H433     H      0.975530000000     0.969020000000     0.816500000000     0.0394461  
H434     H      0.955050000000     0.021960000000     0.820310000000     0.0379597  
H435     H      0.040470000000     0.005440000000     0.703610000000     0.0417777  
H436     H      0.007650000000     0.968520000000     0.656040000000     0.0413468  
H437     H      0.038490000000     0.984330000000     0.848540000000     0.0428348  
H438     H      0.996280000000     0.949670000000     0.269270000000     0.042164   
H439     H      0.957250000000     0.977660000000     0.169150000000     0.035416   
H440     H      0.051200000000     0.010380000000     0.167040000000     0.0407784  
H441     H      0.980830000000     0.042990000000     0.349590000000     0.0430137  
H442     H      0.980020000000     0.953020000000     0.123920000000     0.0437152  
H443     H      0.046310000000     0.979170000000     0.308060000000     0.0362842  
H444     H      0.956880000000     0.022200000000     0.302990000000     0.0353514  
H445     H      0.039400000000     0.971830000000     0.366100000000     0.0463084  
H446     H      0.046430000000     0.017400000000     0.107990000000     0.0382581  
H447     H      0.998970000000     0.944640000000     0.212420000000     0.0459181  
H448     H      0.953560000000     0.982980000000     0.110960000000     0.0436617  
H449     H      0.006850000000     0.049710000000     0.260960000000     0.0455687  
H450     H      0.966230000000     0.016490000000     0.155340000000     0.0391417  
H451     H      0.950570000000     0.016180000000     0.361150000000     0.0439286  
H452     H      0.011720000000     0.957580000000     0.319370000000     0.0385307  
H453     H      0.960460000000     0.982320000000     0.316250000000     0.0394361  
H454     H      0.006670000000     0.044940000000     0.204000000000     0.0416864  
H455     H      0.019730000000     0.034610000000     0.153470000000     0.0399056  
H456     H      0.043850000000     0.011600000000     0.353730000000     0.0414999  
N1       N      0.485500000000     0.483280000000     0.880310000000    -0.162554   
N2       N      0.484580000000     0.479720000000     0.814510000000    -0.110517   
N3       N      0.504710000000     0.478360000000     0.682590000000    -0.113327   
N4       N      0.503060000000     0.482280000000     0.616910000000    -0.158501   
N5       N      0.503730000000     0.488410000000     0.117230000000    -0.161983   
N6       N      0.505320000000     0.485390000000     0.183130000000    -0.110562   
N7       N      0.485950000000     0.482700000000     0.315180000000    -0.113239   
N8       N      0.487480000000     0.484440000000     0.381060000000    -0.157926   
N9       N      0.509530000000     0.870710000000     0.485660000000    -0.162372   
N10      N      0.514140000000     0.804760000000     0.485600000000    -0.110866   
N11      N      0.494730000000     0.674330000000     0.505160000000    -0.113556   
N12      N      0.495280000000     0.608430000000     0.502820000000    -0.158815   
N13      N      0.481740000000     0.106550000000     0.495200000000    -0.162026   
N14      N      0.476260000000     0.172380000000     0.495220000000    -0.110814   
N15      N      0.492880000000     0.303910000000     0.509590000000    -0.113491   
N16      N      0.492310000000     0.369660000000     0.503970000000    -0.158534   
N17      N      0.494870000000     0.610120000000     0.994280000000    -0.161731   
N18      N      0.498460000000     0.675850000000     0.988850000000    -0.110766   
N19      N      0.488040000000     0.808530000000     0.998620000000    -0.1135     
N20      N      0.493970000000     0.874120000000     0.994250000000    -0.158022   
N21      N      0.491740000000     0.111200000000     0.981780000000    -0.161653   
N22      N      0.491950000000     0.177390000000     0.979780000000    -0.110816   
N23      N      0.511170000000     0.307130000000     0.004630000000    -0.113431   
N24      N      0.507900000000     0.373150000000     0.004970000000    -0.157955   
N25      N      0.497350000000     0.993750000000     0.874080000000    -0.161851   
N26      N      0.496190000000     0.995110000000     0.808230000000    -0.110506   
N27      N      0.496340000000     0.978740000000     0.675960000000    -0.11331    
N28      N      0.497050000000     0.983060000000     0.610270000000    -0.158348   
N29      N      0.500870000000     0.000790000000     0.110920000000    -0.161831   
N30      N      0.500970000000     0.004100000000     0.176770000000    -0.110497   
N31      N      0.478250000000     0.001770000000     0.308260000000    -0.113449   
N32      N      0.480970000000     0.997000000000     0.373910000000    -0.15855    
N33      N      0.612920000000     0.491370000000     0.490240000000    -0.161994   
N34      N      0.679100000000     0.491480000000     0.490500000000    -0.110479   
N35      N      0.810350000000     0.492710000000     0.515060000000    -0.113432   
N36      N      0.876340000000     0.494760000000     0.513180000000    -0.158718   
N37      N      0.112560000000     0.512500000000     0.487460000000    -0.162263   
N38      N      0.178680000000     0.515410000000     0.487670000000    -0.110373   
N39      N      0.310970000000     0.507980000000     0.507970000000    -0.113247   
N40      N      0.376550000000     0.500140000000     0.506200000000    -0.158365   
N41      N      0.612690000000     0.505040000000     0.984470000000    -0.162113   
N42      N      0.677950000000     0.511060000000     0.975410000000    -0.110658   
N43      N      0.811310000000     0.498500000000     0.973760000000    -0.113101   
N44      N      0.876600000000     0.500300000000     0.982680000000    -0.158469   
N45      N      0.377730000000     0.484080000000     0.999090000000    -0.16204    
N46      N      0.311650000000     0.482260000000     0.997900000000    -0.110775   
N47      N      0.179050000000     0.499730000000     0.996870000000    -0.113254   
N48      N      0.113060000000     0.497930000000     0.998050000000    -0.158178   
N49      N      0.008840000000     0.492120000000     0.614060000000    -0.161456   
N50      N      0.014070000000     0.487540000000     0.679760000000    -0.110595   
N51      N      0.998090000000     0.487010000000     0.812380000000    -0.113082   
N52      N      0.000090000000     0.491410000000     0.878040000000    -0.157962   
N53      N      0.981110000000     0.491400000000     0.379680000000    -0.161414   
N54      N      0.974370000000     0.486480000000     0.314150000000    -0.110492   
N55      N      0.976290000000     0.498630000000     0.181030000000    -0.113003   
N56      N      0.984000000000     0.494650000000     0.115700000000    -0.157918   
N57      N      0.982250000000     0.881530000000     0.480840000000    -0.161957   
N58      N      0.976200000000     0.815730000000     0.479560000000    -0.11041    
N59      N      0.976380000000     0.683010000000     0.497020000000    -0.113077   
N60      N      0.983050000000     0.617390000000     0.496500000000    -0.158111   
N61      N      0.006360000000     0.380150000000     0.495640000000    -0.162442   
N62      N      0.012780000000     0.314550000000     0.493980000000    -0.110356   
N63      N      0.013220000000     0.182440000000     0.473480000000    -0.113301   
N64      N      0.006550000000     0.116910000000     0.475900000000    -0.158571   
N65      N      0.875060000000     0.012160000000     0.492340000000    -0.162136   
N66      N      0.808880000000     0.016420000000     0.493230000000    -0.110748   
N67      N      0.677890000000     0.996950000000     0.475150000000    -0.113509   
N68      N      0.611980000000     0.995150000000     0.480640000000    -0.158124   
N69      N      0.112740000000     0.992020000000     0.490770000000    -0.162124   
N70      N      0.178790000000     0.990030000000     0.488990000000    -0.110735   
N71      N      0.309830000000     0.968030000000     0.503590000000    -0.113651   
N72      N      0.375870000000     0.972310000000     0.500560000000    -0.158351   
N73      N      0.994940000000     0.614180000000     0.003030000000    -0.161615   
N74      N      0.994290000000     0.680140000000     0.006080000000    -0.11043    
N75      N      0.012980000000     0.812440000000     0.001190000000    -0.113244   
N76      N      0.008310000000     0.877980000000     0.994660000000    -0.158287   
N77      N      0.988450000000     0.377220000000     0.997530000000    -0.161588   
N78      N      0.983160000000     0.311460000000     0.995110000000    -0.110437   
N79      N      0.980840000000     0.178320000000     0.007880000000    -0.113353   
N80      N      0.986300000000     0.112800000000     0.001390000000    -0.157741   
N81      N      0.616350000000     0.994830000000     0.999700000000    -0.161579   
N82      N      0.682710000000     0.995030000000     0.001330000000    -0.110579   
N83      N      0.813370000000     0.976900000000     0.978610000000    -0.113784   
N84      N      0.879540000000     0.981400000000     0.979250000000    -0.157879   
N85      N      0.115570000000     0.003160000000     0.975030000000    -0.161824   
N86      N      0.181950000000     0.003960000000     0.973740000000    -0.11078    
N87      N      0.312040000000     0.985170000000     0.998870000000    -0.113728   
N88      N      0.378280000000     0.987270000000     0.998770000000    -0.158132   
N89      N      0.988300000000     0.005730000000     0.604590000000    -0.161531   
N90      N      0.985190000000     0.010690000000     0.670320000000    -0.110523   
N91      N      0.000680000000     0.010060000000     0.803000000000    -0.113093   
N92      N      0.997680000000     0.004110000000     0.868530000000    -0.15774    
N93      N      0.002690000000     0.992710000000     0.104770000000    -0.162246   
N94      N      0.005700000000     0.989710000000     0.170450000000    -0.110538   
N95      N      0.003440000000     0.004260000000     0.303000000000    -0.113228   
N96      N      0.997860000000     0.000500000000     0.368400000000    -0.158158   
O1       O      0.997370000000     0.995670000000     0.986470000000    -0.370019   
O2       O      0.977870000000     0.981330000000     0.058850000000    -0.30571    
O3       O      0.069530000000     0.017420000000     0.998350000000    -0.304941   
O4       O      0.017050000000     0.923610000000     0.968030000000    -0.303177   
O5       O      0.021980000000     0.008650000000     0.057430000000    -0.303967   
O6       O      0.987470000000     0.924580000000     0.010580000000    -0.304498   
O7       O      0.068540000000     0.980320000000     0.962270000000    -0.302326   
O8       O      0.981660000000     0.021310000000     0.916660000000    -0.302876   
O9       O      0.012600000000     0.066870000000     0.009280000000    -0.303548   
O10      O      0.010400000000     0.978160000000     0.913460000000    -0.303539   
O11      O      0.971090000000     0.066970000000     0.978150000000    -0.303732   
O12      O      0.924670000000     0.007170000000     0.965790000000    -0.30382    
O13      O      0.926770000000     0.970470000000     0.002250000000    -0.30417    
O14      O      0.993580000000     0.999620000000     0.486560000000    -0.368844   
O15      O      0.974670000000     0.015550000000     0.414160000000    -0.303908   
O16      O      0.065210000000     0.976610000000     0.471440000000    -0.306601   
O17      O      0.019540000000     0.070270000000     0.498510000000    -0.304678   
O18      O      0.014780000000     0.982620000000     0.415800000000    -0.3046     
O19      O      0.980370000000     0.071680000000     0.464600000000    -0.303921   
O20      O      0.066380000000     0.012340000000     0.508790000000    -0.303203   
O21      O      0.976230000000     0.981240000000     0.558550000000    -0.3018     
O22      O      0.007530000000     0.926860000000     0.467700000000    -0.303432   
O23      O      0.007520000000     0.022700000000     0.557580000000    -0.304087   
O24      O      0.968270000000     0.928940000000     0.501560000000    -0.304535   
O25      O      0.920640000000     0.988170000000     0.507600000000    -0.303517   
O26      O      0.922350000000     0.023430000000     0.469820000000    -0.304982   
O27      O      0.994400000000     0.495790000000     0.996970000000    -0.368268   
O28      O      0.013310000000     0.422790000000     0.984240000000    -0.302198   
O29      O      0.967460000000     0.479400000000     0.067110000000    -0.3041     
O30      O      0.065930000000     0.512190000000     0.019170000000    -0.303644   
O31      O      0.969680000000     0.425260000000     0.012270000000    -0.303702   
O32      O      0.066590000000     0.478720000000     0.979570000000    -0.304364   
O33      O      0.009700000000     0.509210000000     0.071120000000    -0.304078   
O34      O      0.981450000000     0.568660000000     0.978430000000    -0.304945   
O35      O      0.920170000000     0.482710000000     0.008070000000    -0.305908   
O36      O      0.011060000000     0.566240000000     0.020950000000    -0.302043   
O37      O      0.926010000000     0.516520000000     0.969290000000    -0.303326   
O38      O      0.985880000000     0.516140000000     0.923220000000    -0.305018   
O39      O      0.012690000000     0.471950000000     0.926330000000    -0.30305    
O40      O      0.994370000000     0.498770000000     0.497010000000    -0.367377   
O41      O      0.981550000000     0.424500000000     0.512240000000    -0.304503   
O42      O      0.008540000000     0.481280000000     0.424490000000    -0.30374    
O43      O      0.919950000000     0.513920000000     0.489010000000    -0.30585    
O44      O      0.020620000000     0.428900000000     0.478570000000    -0.305195   
O45      O      0.925220000000     0.474680000000     0.522340000000    -0.303462   
O46      O      0.965670000000     0.510580000000     0.427330000000    -0.302027   
O47      O      0.006540000000     0.572700000000     0.514170000000    -0.304088   
O48      O      0.066860000000     0.488170000000     0.473870000000    -0.305852   
O49      O      0.969060000000     0.568910000000     0.478570000000    -0.30419    
O50      O      0.065380000000     0.525840000000     0.509300000000    -0.303256   
O51      O      0.016200000000     0.517750000000     0.567620000000    -0.301121   
O52      O      0.987190000000     0.474650000000     0.568320000000    -0.303045   
O53      O      0.497210000000     0.992980000000     0.992740000000    -0.367792   
O54      O      0.425070000000     0.973300000000     0.976800000000    -0.305272   
O55      O      0.483000000000     0.017840000000     0.063430000000    -0.303594   
O56      O      0.513340000000     0.920630000000     0.012420000000    -0.30424    
O57      O      0.424900000000     0.009270000000     0.013990000000    -0.302326   
O58      O      0.479050000000     0.921200000000     0.973540000000    -0.304322   
O59      O      0.513230000000     0.975720000000     0.065340000000    -0.303603   
O60      O      0.570230000000     0.011740000000     0.978110000000    -0.304545   
O61      O      0.475770000000     0.065400000000     0.004430000000    -0.303585   
O62      O      0.568740000000     0.974210000000     0.013750000000    -0.301821   
O63      O      0.514720000000     0.064090000000     0.970280000000    -0.302777   
O64      O      0.519430000000     0.007030000000     0.920950000000    -0.303004   
O65      O      0.476880000000     0.977290000000     0.920760000000    -0.304983   
O66      O      0.493530000000     0.988230000000     0.491590000000    -0.367412   
O67      O      0.421150000000     0.997500000000     0.513820000000    -0.30545    
O68      O      0.472200000000     0.971010000000     0.419800000000    -0.30385    
O69      O      0.504930000000     0.062080000000     0.476680000000    -0.306788   
O70      O      0.422990000000     0.960620000000     0.477540000000    -0.303096   
O71      O      0.468590000000     0.057760000000     0.513360000000    -0.302718   
O72      O      0.502040000000     0.013400000000     0.420170000000    -0.30494    
O73      O      0.567870000000     0.976270000000     0.504260000000    -0.305707   
O74      O      0.484330000000     0.915380000000     0.470220000000    -0.30542    
O75      O      0.562770000000     0.012260000000     0.467410000000    -0.303548   
O76      O      0.520350000000     0.918450000000     0.507330000000    -0.30386    
O77      O      0.518420000000     0.971370000000     0.562620000000    -0.304247   
O78      O      0.475770000000     0.000830000000     0.564620000000    -0.305882   
O79      O      0.496040000000     0.491290000000     0.998550000000    -0.369143   
O80      O      0.425380000000     0.470690000000     0.019830000000    -0.301967   
O81      O      0.475120000000     0.562580000000     0.979320000000    -0.30315    
O82      O      0.516550000000     0.510890000000     0.070330000000    -0.302102   
O83      O      0.423600000000     0.504780000000     0.980770000000    -0.30505    
O84      O      0.483210000000     0.471200000000     0.070960000000    -0.305706   
O85      O      0.512530000000     0.564060000000     0.015160000000    -0.303657   
O86      O      0.566130000000     0.482110000000     0.971070000000    -0.305217   
O87      O      0.475480000000     0.508270000000     0.926460000000    -0.30341    
O88      O      0.567850000000     0.512990000000     0.012680000000    -0.301446   
O89      O      0.506330000000     0.466730000000     0.926730000000    -0.306207   
O90      O      0.521890000000     0.420600000000     0.984470000000    -0.304985   
O91      O      0.482480000000     0.418480000000     0.018040000000    -0.303421   
O92      O      0.494600000000     0.488980000000     0.499220000000    -0.367401   
O93      O      0.423950000000     0.513010000000     0.485040000000    -0.305598   
O94      O      0.472680000000     0.417510000000     0.517550000000    -0.306116   
O95      O      0.507100000000     0.466480000000     0.427510000000    -0.303084   
O96      O      0.421760000000     0.474850000000     0.520050000000    -0.303602   
O97      O      0.475210000000     0.507480000000     0.427700000000    -0.304027   
O98      O      0.511800000000     0.415320000000     0.483760000000    -0.304778   
O99      O      0.566990000000     0.508790000000     0.511550000000    -0.304468   
O100     O      0.479870000000     0.468740000000     0.570760000000    -0.304998   
O101     O      0.565590000000     0.469290000000     0.477970000000    -0.302976   
O102     O      0.517470000000     0.504550000000     0.570500000000    -0.304026   
O103     O      0.513110000000     0.561000000000     0.520030000000    -0.305685   
O104     O      0.479450000000     0.562320000000     0.480830000000    -0.306267   
S1       S      0.432600000000     0.501730000000     0.860560000000    -0.00697919 
S2       S      0.557620000000     0.504830000000     0.136090000000    -0.00523071 
S3       S      0.566980000000     0.855640000000     0.485740000000    -0.00845622 
S4       S      0.424050000000     0.120670000000     0.495690000000    -0.00654567 
S5       S      0.495780000000     0.624480000000     0.936800000000    -0.00494741 
S6       S      0.436060000000     0.130320000000     0.974000000000    -0.00775527 
S7       S      0.516870000000     0.046520000000     0.855200000000    -0.00484765 
S8       S      0.523320000000     0.053240000000     0.126880000000    -0.00733093 
S9       S      0.631780000000     0.543020000000     0.468240000000    -0.00952373 
S10      S      0.128730000000     0.567230000000     0.471660000000    -0.00966617 
S11      S      0.629730000000     0.559490000000     0.000720000000    -0.00540681 
S12      S      0.359430000000     0.430070000000     0.015440000000    -0.00523786 
S13      S      0.062500000000     0.511470000000     0.630670000000    -0.00621501 
S14      S      0.927440000000     0.468830000000     0.368190000000    -0.00795971 
S15      S      0.995290000000     0.861660000000     0.426540000000    -0.00627312 
S16      S      0.993920000000     0.357730000000     0.549100000000    -0.00587448 
S17      S      0.859540000000     0.069370000000     0.493530000000    -0.00776897 
S18      S      0.133460000000     0.047600000000     0.491530000000    -0.00608018 
S19      S      0.973710000000     0.629980000000     0.055980000000    -0.00740088 
S20      S      0.008190000000     0.357760000000     0.945080000000    -0.00471628 
S21      S      0.633970000000     0.994380000000     0.056230000000    -0.00594924 
S22      S      0.134150000000     0.059170000000     0.969300000000    -0.00849634 
S23      S      0.934160000000     0.989440000000     0.622900000000    -0.00536285 
S24      S      0.054250000000     0.967470000000     0.119800000000    -0.0079904  
Zn1      Zn     0.972640000000     0.969200000000     0.013790000000     0.452113   
Zn2      Zn     0.024820000000     0.021340000000     0.012040000000     0.453024   
Zn3      Zn     0.022200000000     0.969680000000     0.958290000000     0.448552   
Zn4      Zn     0.969470000000     0.022370000000     0.962410000000     0.448793   
Zn5      Zn     0.968140000000     0.026400000000     0.459590000000     0.452128   
Zn6      Zn     0.019570000000     0.972050000000     0.461330000000     0.452751   
Zn7      Zn     0.020930000000     0.025350000000     0.512420000000     0.450889   
Zn8      Zn     0.965810000000     0.974760000000     0.512880000000     0.449082   
Zn9      Zn     0.021100000000     0.467920000000     0.972730000000     0.449546   
Zn10     Zn     0.963920000000     0.471500000000     0.020640000000     0.451097   
Zn11     Zn     0.019770000000     0.519900000000     0.026350000000     0.449081   
Zn12     Zn     0.972930000000     0.523650000000     0.967790000000     0.450718   
Zn13     Zn     0.972340000000     0.469030000000     0.523900000000     0.450444   
Zn14     Zn     0.021910000000     0.475150000000     0.469290000000     0.451399   
Zn15     Zn     0.963410000000     0.522350000000     0.473190000000     0.450096   
Zn16     Zn     0.019650000000     0.528040000000     0.521530000000     0.449604   
Zn17     Zn     0.470530000000     0.967090000000     0.966360000000     0.450725   
Zn18     Zn     0.470910000000     0.020620000000     0.017950000000     0.450588   
Zn19     Zn     0.522320000000     0.966300000000     0.020070000000     0.449746   
Zn20     Zn     0.524930000000     0.018020000000     0.966440000000     0.450454   
Zn21     Zn     0.465750000000     0.010860000000     0.519850000000     0.451302   
Zn22     Zn     0.468970000000     0.959610000000     0.465480000000     0.449267   
Zn23     Zn     0.515620000000     0.018010000000     0.464960000000     0.450803   
Zn24     Zn     0.523990000000     0.964610000000     0.516180000000     0.451054   
Zn25     Zn     0.471970000000     0.463890000000     0.025910000000     0.450507   
Zn26     Zn     0.468490000000     0.516390000000     0.972290000000     0.45212    
Zn27     Zn     0.522250000000     0.518770000000     0.024020000000     0.450366   
Zn28     Zn     0.521880000000     0.465790000000     0.971120000000     0.451948   
Zn29     Zn     0.469440000000     0.517010000000     0.473510000000     0.451437   
Zn30     Zn     0.467480000000     0.463430000000     0.525710000000     0.450617   
Zn31     Zn     0.519170000000     0.460700000000     0.472900000000     0.448064   
Zn32     Zn     0.522150000000     0.515060000000     0.524750000000     0.451027   


