data_structure

_audit_creation_method RASPA-1.0
_audit_creation_date 2023-5-25
_audit_author_name 'Poobodin Mano'

_cell_length_a    42.7743
_cell_length_b    42.8257
_cell_length_c    42.8931
_cell_angle_alpha 90
_cell_angle_beta  90
_cell_angle_gamma 90
_cell_volume      78573.3

_symmetry_cell_setting          triclinic
_symmetry_space_group_name_Hall 'P 1'
_symmetry_space_group_name_H-M  'P 1'
_symmetry_Int_Tables_number     1

_symmetry_equiv_pos_as_xyz 'x,y,z'

loop_
_atom_site_label
_atom_site_type_symbol
_atom_site_fract_x
_atom_site_fract_y
_atom_site_fract_z
_atom_site_charge
Br1      Br     0.561130000000     0.507100000000     0.624130000000    -0.227886   
Br2      Br     0.560860000000     0.466880000000     0.120780000000    -0.22999    
Br3      Br     0.512020000000     0.627860000000     0.417250000000    -0.230358   
Br4      Br     0.496640000000     0.357840000000     0.555960000000    -0.227846   
Br5      Br     0.509900000000     0.631090000000     0.926450000000    -0.233291   
Br6      Br     0.427280000000     0.129740000000     0.984950000000    -0.218577   
Br7      Br     0.457590000000     0.052350000000     0.858120000000    -0.21068    
Br8      Br     0.462580000000     0.053550000000     0.359780000000    -0.232104   
Br9      Br     0.862800000000     0.426020000000     0.499690000000    -0.226921   
Br10     Br     0.362250000000     0.564010000000     0.484050000000    -0.230411   
Br11     Br     0.869170000000     0.422300000000     0.977360000000    -0.218529   
Br12     Br     0.131730000000     0.432030000000     0.024060000000    -0.23002    
Br13     Br     0.059620000000     0.461740000000     0.626930000000    -0.230489   
Br14     Br     0.932990000000     0.510140000000     0.356430000000    -0.229034   
Br15     Br     0.964460000000     0.856620000000     0.437840000000    -0.216879   
Br16     Br     0.964610000000     0.124410000000     0.558570000000    -0.215509   
Br17     Br     0.855160000000     0.926420000000     0.473840000000    -0.220312   
Br18     Br     0.355100000000     0.976760000000     0.563370000000    -0.232462   
Br19     Br     0.975750000000     0.858090000000     0.052920000000    -0.231379   
Br20     Br     0.969120000000     0.365090000000     0.925520000000    -0.216823   
Br21     Br     0.852850000000     0.061110000000     0.002860000000    -0.229401   
Br22     Br     0.353130000000     0.007790000000     0.925120000000    -0.211168   
Br23     Br     0.931880000000     0.026340000000     0.625120000000    -0.213408   
Br24     Br     0.059340000000     0.978080000000     0.357410000000    -0.230926   
C1       C      0.989750000000     0.990610000000     0.078350000000     0.360441   
C2       C      0.075230000000     0.995220000000     0.995420000000     0.358751   
C3       C      0.988890000000     0.906450000000     0.990350000000     0.368364   
C4       C      0.989770000000     0.990690000000     0.905250000000     0.35816    
C5       C      0.986710000000     0.079350000000     0.989120000000     0.362168   
C6       C      0.901860000000     0.995290000000     0.995100000000     0.367173   
C7       C      0.994790000000     0.993350000000     0.404920000000     0.370116   
C8       C      0.077520000000     0.992940000000     0.489590000000     0.358918   
C9       C      0.989180000000     0.079310000000     0.495560000000     0.373222   
C10      C      0.989340000000     0.994560000000     0.578340000000     0.371569   
C11      C      0.989280000000     0.906460000000     0.495560000000     0.372577   
C12      C      0.904620000000     0.991490000000     0.484900000000     0.371409   
C13      C      0.997180000000     0.405780000000     0.988450000000     0.375641   
C14      C      0.000130000000     0.492020000000     0.079810000000     0.362703   
C15      C      0.083950000000     0.491730000000     0.996160000000     0.371059   
C16      C      0.993480000000     0.579120000000     0.993060000000     0.360572   
C17      C      0.911210000000     0.487290000000     0.995380000000     0.373541   
C18      C      0.998630000000     0.495560000000     0.907370000000     0.362891   
C19      C      0.996950000000     0.406810000000     0.495580000000     0.362968   
C20      C      0.995220000000     0.493340000000     0.406780000000     0.370763   
C21      C      0.910480000000     0.491360000000     0.491350000000     0.370432   
C22      C      0.992750000000     0.579350000000     0.499400000000     0.360166   
C23      C      0.082690000000     0.496560000000     0.488610000000     0.36224    
C24      C      0.999490000000     0.490660000000     0.580800000000     0.372962   
C25      C      0.402180000000     0.997520000000     0.990000000000     0.368495   
C26      C      0.488010000000     0.993310000000     0.078950000000     0.359835   
C27      C      0.484710000000     0.906490000000     0.995410000000     0.360751   
C28      C      0.575090000000     0.989500000000     0.989610000000     0.357077   
C29      C      0.490860000000     0.080250000000     0.992430000000     0.373402   
C30      C      0.487290000000     0.993470000000     0.905680000000     0.372191   
C31      C      0.404380000000     0.987270000000     0.497800000000     0.368921   
C32      C      0.487480000000     0.992360000000     0.406050000000     0.370831   
C33      C      0.485310000000     0.079440000000     0.488620000000     0.363779   
C34      C      0.577490000000     0.996040000000     0.491140000000     0.357695   
C35      C      0.493170000000     0.905320000000     0.493480000000     0.362053   
C36      C      0.495070000000     0.995940000000     0.578830000000     0.361396   
C37      C      0.411300000000     0.495710000000     0.990620000000     0.360146   
C38      C      0.498010000000     0.406840000000     0.993600000000     0.363093   
C39      C      0.495980000000     0.493020000000     0.903380000000     0.361581   
C40      C      0.584410000000     0.492700000000     0.985350000000     0.364052   
C41      C      0.500340000000     0.493720000000     0.076060000000     0.371687   
C42      C      0.500280000000     0.580670000000     0.990000000000     0.370396   
C43      C      0.501740000000     0.578940000000     0.483310000000     0.370282   
C44      C      0.497130000000     0.494210000000     0.576240000000     0.371562   
C45      C      0.410120000000     0.497840000000     0.492470000000     0.369625   
C46      C      0.494120000000     0.406160000000     0.491000000000     0.370463   
C47      C      0.583010000000     0.489520000000     0.492260000000     0.3647     
C48      C      0.495430000000     0.488230000000     0.402740000000     0.363571   
C49      C      0.480780000000     0.470480000000     0.658750000000    -0.0282286  
C50      C      0.504070000000     0.467050000000     0.820380000000    -0.0287884  
C51      C      0.486570000000     0.522840000000     0.855340000000    -0.0114071  
C52      C      0.514470000000     0.469840000000     0.854350000000    -0.00931549 
C53      C      0.473880000000     0.495310000000     0.755830000000    -0.0528307  
C54      C      0.530840000000     0.493300000000     0.723950000000    -0.0511283  
C55      C      0.502130000000     0.496970000000     0.772700000000     0.0634715  
C56      C      0.478740000000     0.517420000000     0.820960000000    -0.0277124  
C57      C      0.502870000000     0.492110000000     0.707020000000     0.0667693  
C58      C      0.505720000000     0.521150000000     0.658650000000    -0.0585747  
C59      C      0.474250000000     0.493850000000     0.723240000000    -0.0546447  
C60      C      0.516830000000     0.517600000000     0.624870000000     0.117947   
C61      C      0.489390000000     0.464410000000     0.624680000000    -0.00554763 
C62      C      0.530480000000     0.495970000000     0.756370000000    -0.0500219  
C63      C      0.474120000000     0.484540000000     0.158650000000    -0.0299734  
C64      C      0.473680000000     0.505000000000     0.320030000000    -0.0289052  
C65      C      0.518050000000     0.466520000000     0.354650000000    -0.00853903 
C66      C      0.466230000000     0.496090000000     0.353780000000    -0.00971264 
C67      C      0.496930000000     0.455380000000     0.254600000000    -0.0519138  
C68      C      0.502400000000     0.512770000000     0.224010000000    -0.0535786  
C69      C      0.496140000000     0.483010000000     0.272050000000     0.0634801  
C70      C      0.523280000000     0.477810000000     0.321250000000    -0.0292687  
C71      C      0.503490000000     0.484840000000     0.206630000000     0.0657391  
C72      C      0.525230000000     0.508430000000     0.158860000000    -0.0573292  
C73      C      0.500850000000     0.456280000000     0.222320000000    -0.0503978  
C74      C      0.530840000000     0.500870000000     0.124320000000     0.115914   
C75      C      0.476990000000     0.474480000000     0.124650000000    -0.00354702 
C76      C      0.499700000000     0.511820000000     0.256510000000    -0.0534188  
C77      C      0.520180000000     0.660700000000     0.505240000000    -0.02902    
C78      C      0.478950000000     0.822960000000     0.468750000000    -0.0286407  
C79      C      0.511680000000     0.856620000000     0.518090000000    -0.0101147  
C80      C      0.468430000000     0.856010000000     0.477170000000    -0.0101128  
C81      C      0.478530000000     0.753140000000     0.508870000000    -0.0508897  
C82      C      0.521490000000     0.730830000000     0.465080000000    -0.0504324  
C83      C      0.496370000000     0.774390000000     0.491550000000     0.0630564  
C84      C      0.519880000000     0.823390000000     0.507700000000    -0.0286729  
C85      C      0.503660000000     0.709580000000     0.482410000000     0.0654909  
C86      C      0.479880000000     0.661040000000     0.465480000000    -0.0577841  
C87      C      0.482060000000     0.721000000000     0.504420000000    -0.0549431  
C88      C      0.487490000000     0.627490000000     0.455460000000     0.116848   
C89      C      0.529940000000     0.627350000000     0.497070000000    -0.00433572 
C90      C      0.517940000000     0.762980000000     0.469510000000    -0.0538002  
C91      C      0.508320000000     0.322960000000     0.468480000000    -0.0292786  
C92      C      0.466070000000     0.161490000000     0.509900000000    -0.0286293  
C93      C      0.499660000000     0.127980000000     0.461100000000    -0.0108793  
C94      C      0.456900000000     0.127790000000     0.502260000000    -0.0101848  
C95      C      0.503540000000     0.222290000000     0.508300000000    -0.0537576  
C96      C      0.469180000000     0.263050000000     0.470540000000    -0.0550194  
C97      C      0.482480000000     0.210130000000     0.486170000000     0.0634389  
C98      C      0.506940000000     0.161580000000     0.470730000000    -0.0280403  
C99      C      0.490270000000     0.275190000000     0.492640000000     0.0654767  
C100     C      0.466580000000     0.324720000000     0.506480000000    -0.0577691  
C101     C      0.507300000000     0.254560000000     0.511450000000    -0.0501089  
C102     C      0.474660000000     0.358200000000     0.516220000000     0.116562   
C103     C      0.518700000000     0.356320000000     0.475950000000    -0.00430697 
C104     C      0.465390000000     0.230770000000     0.467420000000    -0.0512824  
C105     C      0.514150000000     0.662910000000     0.015280000000    -0.0290014  
C106     C      0.469090000000     0.823910000000     0.973640000000    -0.0297975  
C107     C      0.499700000000     0.858560000000     0.023550000000    -0.00956731 
C108     C      0.458340000000     0.857200000000     0.981020000000    -0.0100588  
C109     C      0.469790000000     0.754610000000     0.015770000000    -0.0504697  
C110     C      0.514460000000     0.732770000000     0.973450000000    -0.0508756  
C111     C      0.486820000000     0.775990000000     0.997820000000     0.0606563  
C112     C      0.508710000000     0.825390000000     0.014080000000    -0.0274047  
C113     C      0.497430000000     0.711390000000     0.991390000000     0.0640151  
C114     C      0.475380000000     0.662430000000     0.974130000000    -0.0582185  
C115     C      0.474940000000     0.722550000000     0.012630000000    -0.0546913  
C116     C      0.484320000000     0.629400000000     0.963940000000     0.117066   
C117     C      0.524990000000     0.629730000000     0.007530000000    -0.00214631 
C118     C      0.509290000000     0.764830000000     0.976570000000    -0.0537184  
C119     C      0.516260000000     0.162400000000     0.976940000000    -0.0287628  
C120     C      0.474770000000     0.325260000000     0.013150000000    -0.0273996  
C121     C      0.524290000000     0.357670000000     0.979410000000    -0.00982623 
C122     C      0.482570000000     0.359040000000     0.021760000000    -0.00947705 
C123     C      0.516690000000     0.255970000000     0.016320000000    -0.049679   
C124     C      0.473570000000     0.231360000000     0.973920000000    -0.0502412  
C125     C      0.498510000000     0.276230000000     0.998200000000     0.0613256  
C126     C      0.514380000000     0.324060000000     0.972790000000    -0.0294857  
C127     C      0.491850000000     0.211110000000     0.991940000000     0.0651431  
C128     C      0.475940000000     0.162790000000     0.016480000000    -0.0572726  
C129     C      0.513430000000     0.223640000000     0.013320000000    -0.0543226  
C130     C      0.465880000000     0.129310000000     0.009010000000     0.1177     
C131     C      0.508750000000     0.128820000000     0.967390000000    -0.00483479 
C132     C      0.476790000000     0.263680000000     0.976950000000    -0.0529615  
C133     C      0.482320000000     0.967690000000     0.822800000000    -0.0292081  
C134     C      0.477630000000     0.021030000000     0.659970000000    -0.0295512  
C135     C      0.515160000000     0.973990000000     0.628070000000    -0.00834479 
C136     C      0.488780000000     0.027230000000     0.626690000000    -0.00817035 
C137     C      0.521420000000     0.997360000000     0.729030000000    -0.0507755  
C138     C      0.461700000000     0.996650000000     0.755360000000    -0.0494177  
C139     C      0.495180000000     0.998370000000     0.709480000000     0.0625325  
C140     C      0.502130000000     0.969980000000     0.661080000000    -0.0304551  
C141     C      0.487940000000     0.997180000000     0.774910000000     0.0661596  
C142     C      0.505010000000     0.019470000000     0.824680000000    -0.0562063  
C143     C      0.517960000000     0.996140000000     0.761410000000    -0.0547089  
C144     C      0.493870000000     0.024930000000     0.858120000000     0.115498   
C145     C      0.469430000000     0.970550000000     0.856030000000    -0.00444297 
C146     C      0.465160000000     0.996600000000     0.722950000000    -0.05266    
C147     C      0.476520000000     0.966130000000     0.323830000000    -0.0299634  
C148     C      0.505500000000     0.969790000000     0.161380000000    -0.0288402  
C149     C      0.466830000000     0.014770000000     0.127700000000    -0.00867968 
C150     C      0.497910000000     0.963690000000     0.127060000000    -0.0105257  
C151     C      0.452910000000     0.990020000000     0.226080000000    -0.0518738  
C152     C      0.509210000000     0.993040000000     0.258990000000    -0.0542463  
C153     C      0.481210000000     0.989210000000     0.209640000000     0.062639   
C154     C      0.477100000000     0.018560000000     0.161620000000    -0.0280552  
C155     C      0.480640000000     0.994610000000     0.275330000000     0.0652534  
C156     C      0.503740000000     0.015600000000     0.323550000000    -0.0567249  
C157     C      0.452620000000     0.993010000000     0.258480000000    -0.0507139  
C158     C      0.495490000000     0.022240000000     0.357660000000     0.116925   
C159     C      0.465940000000     0.970270000000     0.357640000000    -0.0036071  
C160     C      0.509480000000     0.991350000000     0.226420000000    -0.0535574  
C161     C      0.827870000000     0.507490000000     0.467000000000    -0.0282172  
C162     C      0.665360000000     0.478890000000     0.466540000000    -0.0287985  
C163     C      0.631370000000     0.497890000000     0.522370000000    -0.0114674  
C164     C      0.631700000000     0.467890000000     0.470870000000    -0.0089349  
C165     C      0.730210000000     0.511850000000     0.492380000000    -0.0526528  
C166     C      0.763190000000     0.455600000000     0.489200000000    -0.0511876  
C167     C      0.713950000000     0.483300000000     0.494710000000     0.0639035  
C168     C      0.665550000000     0.506250000000     0.515870000000    -0.0274947  
C169     C      0.779580000000     0.483870000000     0.487580000000     0.0670343  
C170     C      0.827920000000     0.480390000000     0.516460000000    -0.0588359  
C171     C      0.762820000000     0.512140000000     0.489810000000    -0.054389   
C172     C      0.861760000000     0.469610000000     0.512600000000     0.117975   
C173     C      0.862270000000     0.499630000000     0.460930000000    -0.00567706 
C174     C      0.730820000000     0.455320000000     0.493050000000    -0.0499623  
C175     C      0.327120000000     0.482230000000     0.514960000000    -0.0290299  
C176     C      0.165110000000     0.509720000000     0.512470000000    -0.0289445  
C177     C      0.130780000000     0.487520000000     0.458060000000    -0.00985516 
C178     C      0.131340000000     0.520200000000     0.507850000000    -0.00906438 
C179     C      0.230230000000     0.476210000000     0.487640000000    -0.0528647  
C180     C      0.262360000000     0.532990000000     0.489850000000    -0.0519884  
C181     C      0.213570000000     0.504440000000     0.484320000000     0.0627439  
C182     C      0.165200000000     0.479940000000     0.464560000000    -0.0289308  
C183     C      0.279120000000     0.505030000000     0.492680000000     0.0661985  
C184     C      0.328450000000     0.509480000000     0.465540000000    -0.0587564  
C185     C      0.262790000000     0.476480000000     0.490830000000    -0.0548559  
C186     C      0.362040000000     0.520580000000     0.470600000000     0.117826   
C187     C      0.361180000000     0.490640000000     0.522170000000    -0.00453747 
C188     C      0.230070000000     0.532680000000     0.485360000000    -0.0505932  
C189     C      0.827660000000     0.509380000000     0.983570000000    -0.0315151  
C190     C      0.667460000000     0.511710000000     0.003140000000    -0.0263849  
C191     C      0.632070000000     0.468300000000     0.964340000000    -0.00860674 
C192     C      0.634350000000     0.520460000000     0.992940000000    -0.0123869  
C193     C      0.733170000000     0.483110000000     0.955990000000    -0.0513934  
C194     C      0.762750000000     0.482290000000     0.014100000000    -0.0524554  
C195     C      0.715230000000     0.486750000000     0.983060000000     0.0625754  
C196     C      0.664860000000     0.461700000000     0.976840000000    -0.0292635  
C197     C      0.780650000000     0.478760000000     0.986740000000     0.0651595  
C198     C      0.828920000000     0.461570000000     0.013280000000    -0.0564528  
C199     C      0.765420000000     0.478790000000     0.957830000000    -0.0500628  
C200     C      0.863900000000     0.456450000000     0.006860000000     0.116162   
C201     C      0.861800000000     0.506520000000     0.973950000000    -0.00297263 
C202     C      0.730230000000     0.485290000000     0.012320000000    -0.0518731  
C203     C      0.165890000000     0.519100000000     0.005280000000    -0.0283343  
C204     C      0.328180000000     0.519040000000     0.974140000000    -0.0287081  
C205     C      0.362720000000     0.473330000000     0.011160000000    -0.00877375 
C206     C      0.362780000000     0.525070000000     0.981070000000    -0.0104645  
C207     C      0.264740000000     0.497850000000     0.027670000000    -0.0497158  
C208     C      0.230490000000     0.493290000000     0.972380000000    -0.056335   
C209     C      0.280480000000     0.498790000000     0.999050000000     0.0610496  
C210     C      0.328680000000     0.469620000000     0.001260000000    -0.0269477  
C211     C      0.214910000000     0.491520000000     0.001300000000     0.0677601  
C212     C      0.166590000000     0.468410000000     0.980370000000    -0.058087   
C213     C      0.232400000000     0.493950000000     0.028790000000    -0.0519814  
C214     C      0.132650000000     0.461590000000     0.989620000000     0.115403   
C215     C      0.132390000000     0.514740000000     0.016820000000    -0.00318555 
C216     C      0.263060000000     0.495940000000     0.971280000000    -0.0524083  
C217     C      0.973820000000     0.482750000000     0.663360000000    -0.0298203  
C218     C      0.975120000000     0.511960000000     0.824250000000    -0.0274767  
C219     C      0.024300000000     0.479580000000     0.858850000000    -0.00971665 
C220     C      0.969680000000     0.504730000000     0.858780000000    -0.0108666  
C221     C      0.998940000000     0.459690000000     0.761410000000    -0.0517936  
C222     C      0.000610000000     0.514960000000     0.726780000000    -0.0534047  
C223     C      0.997210000000     0.488430000000     0.776900000000     0.0646865  
C224     C      0.026870000000     0.489580000000     0.824810000000    -0.0276269  
C225     C      0.002970000000     0.485960000000     0.711400000000     0.0656081  
C226     C      0.025210000000     0.506320000000     0.662650000000    -0.0573806  
C227     C      0.002010000000     0.458470000000     0.729060000000    -0.0489705  
C228     C      0.030870000000     0.496920000000     0.628630000000     0.11621    
C229     C      0.976870000000     0.471210000000     0.629800000000    -0.00402702 
C230     C      0.998670000000     0.516200000000     0.759320000000    -0.0546071  
C231     C      0.011700000000     0.468150000000     0.325180000000    -0.0288669  
C232     C      0.005730000000     0.519780000000     0.161960000000    -0.0284267  
C233     C      0.995080000000     0.461560000000     0.128200000000    -0.0112747  
C234     C      0.018220000000     0.516420000000     0.128650000000    -0.0095683  
C235     C      0.027880000000     0.492040000000     0.229810000000    -0.05165    
C236     C      0.968420000000     0.492570000000     0.256730000000    -0.0506474  
C237     C      0.001430000000     0.491330000000     0.210550000000     0.0636849  
C238     C      0.984280000000     0.467420000000     0.161620000000    -0.0284372  
C239     C      0.994850000000     0.491660000000     0.276000000000     0.0652074  
C240     C      0.990700000000     0.520670000000     0.324380000000    -0.0588375  
C241     C      0.024750000000     0.492800000000     0.262240000000    -0.0545974  
C242     C      0.977860000000     0.517730000000     0.357650000000     0.117721   
C243     C      0.000700000000     0.462590000000     0.358600000000    -0.00400005 
C244     C      0.971560000000     0.493000000000     0.224300000000    -0.0537369  
C245     C      0.980310000000     0.825500000000     0.526890000000    -0.0294818  
C246     C      0.007700000000     0.661070000000     0.526640000000    -0.0287447  
C247     C      0.969510000000     0.628390000000     0.480640000000    -0.00953091 
C248     C      0.000080000000     0.626470000000     0.531700000000    -0.0098174  
C249     C      0.955690000000     0.726510000000     0.507160000000    -0.051072   
C250     C      0.012110000000     0.759060000000     0.502420000000    -0.0537627  
C251     C      0.983890000000     0.709880000000     0.507700000000     0.0626107  
C252     C      0.979740000000     0.662410000000     0.477630000000    -0.0294192  
C253     C      0.983610000000     0.775520000000     0.500770000000     0.0659272  
C254     C      0.006390000000     0.822670000000     0.477000000000    -0.0563267  
C255     C      0.955530000000     0.758880000000     0.503420000000    -0.0502034  
C256     C      0.997840000000     0.856400000000     0.468690000000     0.114505   
C257     C      0.969470000000     0.859070000000     0.521240000000    -0.00446717 
C258     C      0.012230000000     0.726480000000     0.504890000000    -0.052731   
C259     C      0.979700000000     0.162480000000     0.472470000000    -0.0301827  
C260     C      0.014220000000     0.323080000000     0.475250000000    -0.0281005  
C261     C      0.976390000000     0.358870000000     0.519300000000    -0.00990838 
C262     C      0.007560000000     0.357500000000     0.468220000000    -0.00949957 
C263     C      0.959590000000     0.260470000000     0.497080000000    -0.0510116  
C264     C      0.014720000000     0.225580000000     0.499990000000    -0.0529873  
C265     C      0.988430000000     0.275930000000     0.495760000000     0.0638594  
C266     C      0.986010000000     0.324830000000     0.523950000000    -0.0284693  
C267     C      0.985590000000     0.210230000000     0.501810000000     0.0656585  
C268     C      0.006950000000     0.160660000000     0.521850000000    -0.0563578  
C269     C      0.958190000000     0.228090000000     0.500390000000    -0.0492897  
C270     C      0.997680000000     0.126510000000     0.527490000000     0.114084   
C271     C      0.967960000000     0.128950000000     0.475850000000    -0.003531   
C272     C      0.016120000000     0.258170000000     0.497950000000    -0.0527097  
C273     C      0.823210000000     0.014830000000     0.464760000000    -0.0290372  
C274     C      0.660850000000     0.974310000000     0.505300000000    -0.0299173  
C275     C      0.625330000000     0.022740000000     0.473150000000    -0.009822   
C276     C      0.627450000000     0.981470000000     0.515910000000    -0.0100283  
C277     C      0.720610000000     0.977140000000     0.466170000000    -0.0530863  
C278     C      0.761690000000     0.013850000000     0.501310000000    -0.0540521  
C279     C      0.708590000000     0.998930000000     0.487640000000     0.0603515  
C280     C      0.658850000000     0.013500000000     0.464680000000    -0.0271164  
C281     C      0.773720000000     0.991880000000     0.480030000000     0.0643719  
C282     C      0.821610000000     0.975070000000     0.504930000000    -0.0579609  
C283     C      0.752920000000     0.973700000000     0.462490000000    -0.0505744  
C284     C      0.855240000000     0.964750000000     0.498210000000     0.116265   
C285     C      0.856940000000     0.006590000000     0.456000000000    -0.00108786 
C286     C      0.729390000000     0.017270000000     0.505010000000    -0.0488443  
C287     C      0.322580000000     0.968770000000     0.475230000000    -0.029429   
C288     C      0.159950000000     0.009840000000     0.511890000000    -0.0259767  
C289     C      0.126110000000     0.975480000000     0.463830000000    -0.0117071  
C290     C      0.126660000000     0.019730000000     0.503440000000    -0.0100357  
C291     C      0.229690000000     0.009560000000     0.471640000000    -0.0496257  
C292     C      0.252370000000     0.967360000000     0.515950000000    -0.0502553  
C293     C      0.208550000000     0.991970000000     0.489350000000     0.0619374  
C294     C      0.159540000000     0.967830000000     0.474060000000    -0.0278421  
C295     C      0.273510000000     0.984890000000     0.498170000000     0.0638836  
C296     C      0.321950000000     0.008870000000     0.515120000000    -0.057285   
C297     C      0.261900000000     0.006170000000     0.475960000000    -0.0535457  
C298     C      0.355530000000     0.001380000000     0.525240000000     0.118579   
C299     C      0.356050000000     0.959190000000     0.483370000000    -0.00418851 
C300     C      0.220150000000     0.970830000000     0.511690000000    -0.0536828  
C301     C      0.012580000000     0.823800000000     0.972450000000    -0.0290542  
C302     C      0.017360000000     0.662610000000     0.000470000000    -0.0264215  
C303     C      0.962220000000     0.626360000000     0.983310000000    -0.0119478  
C304     C      0.014780000000     0.628930000000     0.011820000000    -0.00890059 
C305     C      0.988940000000     0.725950000000     0.968080000000    -0.0536715  
C306     C      0.990180000000     0.759420000000     0.024010000000    -0.0510706  
C307     C      0.986930000000     0.709870000000     0.996700000000     0.0612405  
C308     C      0.967240000000     0.660630000000     0.974560000000    -0.0281854  
C309     C      0.991680000000     0.775590000000     0.995670000000     0.0646724  
C310     C      0.962050000000     0.823670000000     0.997570000000    -0.061364   
C311     C      0.990360000000     0.758590000000     0.967560000000    -0.0555563  
C312     C      0.965350000000     0.857430000000     0.008690000000     0.119888   
C313     C      0.018360000000     0.858140000000     0.980510000000    -0.0041767  
C314     C      0.987550000000     0.726970000000     0.024510000000    -0.0498982  
C315     C      0.985730000000     0.322070000000     0.009610000000    -0.0289329  
C316     C      0.003680000000     0.162740000000     0.008810000000    -0.0252733  
C317     C      0.968360000000     0.126960000000     0.962780000000    -0.0100568  
C318     C      0.994130000000     0.129240000000     0.016560000000    -0.0109564  
C319     C      0.955780000000     0.227750000000     0.982220000000    -0.0508052  
C320     C      0.013580000000     0.258120000000     0.979580000000    -0.0536702  
C321     C      0.983300000000     0.210150000000     0.984000000000     0.0636758  
C322     C      0.980080000000     0.160290000000     0.957600000000    -0.028649   
C323     C      0.985780000000     0.275720000000     0.977920000000     0.0665619  
C324     C      0.010030000000     0.324240000000     0.958830000000    -0.0569984  
C325     C      0.957010000000     0.260130000000     0.978960000000    -0.0497949  
C326     C      0.003090000000     0.359220000000     0.955150000000     0.116162   
C327     C      0.976300000000     0.356390000000     0.008550000000    -0.00295931 
C328     C      0.012350000000     0.225540000000     0.981660000000    -0.0528017  
C329     C      0.819820000000     0.973220000000     0.013670000000    -0.0287847  
C330     C      0.657430000000     0.011360000000     0.972020000000    -0.0285173  
C331     C      0.623620000000     0.962740000000     0.005630000000    -0.00809984 
C332     C      0.623980000000     0.003310000000     0.962300000000    -0.00791435 
C333     C      0.717750000000     0.010570000000     0.010330000000    -0.0519156  
C334     C      0.759220000000     0.973710000000     0.975810000000    -0.0544408  
C335     C      0.705990000000     0.988180000000     0.989340000000     0.0603823  
C336     C      0.657090000000     0.972730000000     0.013310000000    -0.0286681  
C337     C      0.770990000000     0.996130000000     0.996770000000     0.0605941  
C338     C      0.819560000000     0.011890000000     0.972410000000    -0.0570367  
C339     C      0.750000000000     0.014440000000     0.013930000000    -0.047322   
C340     C      0.853130000000     0.022080000000     0.979640000000     0.116517   
C341     C      0.853340000000     0.981420000000     0.023060000000    -0.00418894 
C342     C      0.726970000000     0.969850000000     0.972210000000    -0.051917   
C343     C      0.320750000000     0.017250000000     0.013460000000    -0.0259809  
C344     C      0.158310000000     0.979680000000     0.974240000000    -0.0297912  
C345     C      0.123150000000     0.013810000000     0.021540000000    -0.00869632 
C346     C      0.124890000000     0.969630000000     0.981710000000    -0.00998694 
C347     C      0.226670000000     0.978970000000     0.016220000000    -0.0486218  
C348     C      0.250890000000     0.020880000000     0.972440000000    -0.0517025  
C349     C      0.206200000000     0.997110000000     0.998290000000     0.0585318  
C350     C      0.156860000000     0.021450000000     0.012230000000    -0.0267762  
C351     C      0.271360000000     0.002660000000     0.990300000000     0.0672953  
C352     C      0.319060000000     0.977130000000     0.973660000000    -0.0580539  
C353     C      0.259000000000     0.981630000000     0.012330000000    -0.0571028  
C354     C      0.352830000000     0.983610000000     0.963540000000     0.113739   
C355     C      0.354460000000     0.025910000000     0.005390000000    -0.00405727 
C356     C      0.218560000000     0.018180000000     0.976300000000    -0.0504027  
C357     C      0.016890000000     0.000350000000     0.660720000000    -0.0273667  
C358     C      0.014410000000     0.973950000000     0.822550000000    -0.0279585  
C359     C      0.966020000000     0.008320000000     0.856280000000    -0.00679866 
C360     C      0.019610000000     0.981270000000     0.857130000000    -0.0118365  
C361     C      0.993560000000     0.026260000000     0.758800000000    -0.0498854  
C362     C      0.988870000000     0.970730000000     0.724860000000    -0.0540607  
C363     C      0.993660000000     0.997680000000     0.774670000000     0.0617392  
C364     C      0.963490000000     0.998210000000     0.822260000000    -0.0318936  
C365     C      0.988060000000     0.999610000000     0.709110000000     0.0637778  
C366     C      0.964130000000     0.980110000000     0.660780000000    -0.0576693  
C367     C      0.990580000000     0.027220000000     0.726420000000    -0.0485127  
C368     C      0.958620000000     0.989600000000     0.626740000000     0.113987   
C369     C      0.014240000000     0.011790000000     0.627070000000    -0.00370003 
C370     C      0.990750000000     0.969800000000     0.757430000000    -0.053572   
C371     C      0.980390000000     0.016340000000     0.322000000000    -0.0285054  
C372     C      0.000180000000     0.015480000000     0.161110000000    -0.0275841  
C373     C      0.983260000000     0.959480000000     0.126220000000    -0.0119542  
C374     C      0.010060000000     0.012940000000     0.127020000000    -0.00819337 
C375     C      0.971520000000     0.987930000000     0.225920000000    -0.0524884  
C376     C      0.028890000000     0.990450000000     0.257020000000    -0.0519055  
C377     C      0.999540000000     0.985670000000     0.208760000000     0.062405   
C378     C      0.975980000000     0.964510000000     0.160840000000    -0.0280667  
C379     C      0.001150000000     0.992430000000     0.274240000000     0.0667768  
C380     C      0.003440000000     0.964760000000     0.323350000000    -0.0583056  
C381     C      0.972310000000     0.990360000000     0.258440000000    -0.0552163  
C382     C      0.014770000000     0.968820000000     0.356970000000     0.118082   
C383     C      0.989410000000     0.022950000000     0.355900000000    -0.00349447 
C384     C      0.028100000000     0.986870000000     0.224700000000    -0.0496903  
H1       H      0.552410000000     0.496890000000     0.768950000000     0.050788   
H2       H      0.479180000000     0.447650000000     0.671060000000     0.0426379  
H3       H      0.522150000000     0.536910000000     0.671220000000     0.0600896  
H4       H      0.505810000000     0.540250000000     0.856830000000     0.0512984  
H5       H      0.509150000000     0.447550000000     0.623990000000     0.0614054  
H6       H      0.521170000000     0.451850000000     0.808010000000     0.0390026  
H7       H      0.477090000000     0.540480000000     0.809120000000     0.0404324  
H8       H      0.511930000000     0.446610000000     0.865700000000     0.0458418  
H9       H      0.514250000000     0.540630000000     0.613130000000     0.0321992  
H10      H      0.553050000000     0.492370000000     0.711860000000     0.0603879  
H11      H      0.469160000000     0.452980000000     0.613070000000     0.0527508  
H12      H      0.451530000000     0.495430000000     0.767580000000     0.0435605  
H13      H      0.457390000000     0.481860000000     0.659480000000     0.0395637  
H14      H      0.465820000000     0.533370000000     0.866910000000     0.0514313  
H15      H      0.480710000000     0.455600000000     0.819060000000     0.0416204  
H16      H      0.455520000000     0.505780000000     0.819500000000     0.0392644  
H17      H      0.452170000000     0.493660000000     0.710980000000     0.0442476  
H18      H      0.482220000000     0.532360000000     0.659120000000     0.0480375  
H19      H      0.539710000000     0.476070000000     0.854930000000     0.0469742  
H20      H      0.499920000000     0.533610000000     0.269220000000     0.0454754  
H21      H      0.458280000000     0.467750000000     0.170640000000     0.0383647  
H22      H      0.548070000000     0.509720000000     0.171240000000     0.0612134  
H23      H      0.509890000000     0.441870000000     0.354000000000     0.0439485  
H24      H      0.482690000000     0.449150000000     0.123840000000     0.0546323  
H25      H      0.451290000000     0.507730000000     0.307080000000     0.0389037  
H26      H      0.538390000000     0.460440000000     0.309160000000     0.0391415  
H27      H      0.454860000000     0.516370000000     0.365340000000     0.0519343  
H28      H      0.541750000000     0.521650000000     0.113200000000     0.0331603  
H29      H      0.503800000000     0.535280000000     0.212710000000     0.0441829  
H30      H      0.453840000000     0.477620000000     0.113240000000     0.0441978  
H31      H      0.494650000000     0.433020000000     0.266160000000     0.0486373  
H32      H      0.463300000000     0.508160000000     0.160140000000     0.0401028  
H33      H      0.540870000000     0.466930000000     0.367080000000     0.0474452  
H34      H      0.486040000000     0.527870000000     0.320080000000     0.0439703  
H35      H      0.535790000000     0.500630000000     0.321370000000     0.0448452  
H36      H      0.501290000000     0.434600000000     0.209320000000     0.0528246  
H37      H      0.514040000000     0.531860000000     0.160410000000     0.0446735  
H38      H      0.448960000000     0.476680000000     0.353610000000     0.0428986  
H39      H      0.531920000000     0.778900000000     0.455730000000     0.0447352  
H40      H      0.541020000000     0.673270000000     0.514430000000     0.0405469  
H41      H      0.470320000000     0.674050000000     0.445120000000     0.0624002  
H42      H      0.498050000000     0.855300000000     0.540130000000     0.0448911  
H43      H      0.551160000000     0.628330000000     0.482130000000     0.0560523  
H44      H      0.458330000000     0.809910000000     0.459740000000     0.0392257  
H45      H      0.529920000000     0.810670000000     0.528000000000     0.0383903  
H46      H      0.461740000000     0.868260000000     0.455300000000     0.0474463  
H47      H      0.465050000000     0.615590000000     0.449960000000     0.0391394  
H48      H      0.538190000000     0.722380000000     0.448070000000     0.055627   
H49      H      0.536530000000     0.615190000000     0.519010000000     0.0495505  
H50      H      0.461790000000     0.761580000000     0.525830000000     0.0494325  
H51      H      0.502180000000     0.659970000000     0.524000000000     0.0418677  
H52      H      0.533770000000     0.869280000000     0.523300000000     0.0466383  
H53      H      0.496730000000     0.824150000000     0.449810000000     0.0405972  
H54      H      0.538060000000     0.824470000000     0.489140000000     0.0401357  
H55      H      0.468000000000     0.705110000000     0.518130000000     0.0459452  
H56      H      0.461340000000     0.660370000000     0.483700000000     0.0503668  
H57      H      0.447140000000     0.854450000000     0.491980000000     0.0456843  
H58      H      0.449170000000     0.221760000000     0.450240000000     0.0494774  
H59      H      0.529100000000     0.309590000000     0.460350000000     0.0400125  
H60      H      0.455610000000     0.312410000000     0.526560000000     0.0609587  
H61      H      0.485190000000     0.128470000000     0.439560000000     0.0508777  
H62      H      0.539950000000     0.355300000000     0.490850000000     0.0558312  
H63      H      0.444940000000     0.173960000000     0.518500000000     0.0397968  
H64      H      0.516430000000     0.174160000000     0.450080000000     0.0396333  
H65      H      0.450410000000     0.115810000000     0.524340000000     0.0487088  
H66      H      0.452330000000     0.370940000000     0.520020000000     0.0329656  
H67      H      0.455770000000     0.278490000000     0.455700000000     0.0440381  
H68      H      0.525440000000     0.367960000000     0.453760000000     0.0459779  
H69      H      0.517110000000     0.206870000000     0.523010000000     0.0454921  
H70      H      0.490950000000     0.323490000000     0.449130000000     0.0392088  
H71      H      0.522050000000     0.116150000000     0.455260000000     0.0502745  
H72      H      0.483790000000     0.161400000000     0.528940000000     0.0414446  
H73      H      0.525280000000     0.161420000000     0.489170000000     0.0410043  
H74      H      0.523610000000     0.263570000000     0.528530000000     0.056656   
H75      H      0.449020000000     0.325480000000     0.487310000000     0.0456078  
H76      H      0.435800000000     0.128150000000     0.487120000000     0.0465116  
H77      H      0.522800000000     0.780850000000     0.962460000000     0.044317   
H78      H      0.534300000000     0.675970000000     0.025260000000     0.0396295  
H79      H      0.465980000000     0.675390000000     0.953660000000     0.0600074  
H80      H      0.484450000000     0.857350000000     0.044510000000     0.0422469  
H81      H      0.547170000000     0.631140000000     0.994080000000     0.0536828  
H82      H      0.448740000000     0.810600000000     0.964410000000     0.0386608  
H83      H      0.518080000000     0.813150000000     0.034990000000     0.0373108  
H84      H      0.452060000000     0.868980000000     0.958780000000     0.0476815  
H85      H      0.462380000000     0.616960000000     0.957620000000     0.0327475  
H86      H      0.531710000000     0.724490000000     0.956920000000     0.0555882  
H87      H      0.530210000000     0.617370000000     0.029730000000     0.0457227  
H88      H      0.452480000000     0.762880000000     0.032230000000     0.0472018  
H89      H      0.495450000000     0.661790000000     0.033310000000     0.0390564  
H90      H      0.521350000000     0.871240000000     0.030290000000     0.0467796  
H91      H      0.487350000000     0.824750000000     0.955140000000     0.0409849  
H92      H      0.527590000000     0.826430000000     0.996220000000     0.0393669  
H93      H      0.461340000000     0.706510000000     0.026630000000     0.0433588  
H94      H      0.456370000000     0.661010000000     0.991840000000     0.0450808  
H95      H      0.436840000000     0.855970000000     0.995550000000     0.0428123  
H96      H      0.462460000000     0.278830000000     0.962680000000     0.0455125  
H97      H      0.525750000000     0.174890000000     0.956230000000     0.0413418  
H98      H      0.455530000000     0.175860000000     0.025930000000     0.0612035  
H99      H      0.545940000000     0.357300000000     0.993770000000     0.0453342  
H100     H      0.495140000000     0.129300000000     0.945300000000     0.0615546  
H101     H      0.465790000000     0.313240000000     0.034350000000     0.0393954  
H102     H      0.535030000000     0.311100000000     0.963710000000     0.0391318  
H103     H      0.460420000000     0.371370000000     0.027510000000     0.0478107  
H104     H      0.460610000000     0.117420000000     0.031460000000     0.0329868  
H105     H      0.456810000000     0.222010000000     0.957460000000     0.0583889  
H106     H      0.531110000000     0.116520000000     0.962470000000     0.0477867  
H107     H      0.533490000000     0.265310000000     0.032750000000     0.0491185  
H108     H      0.534690000000     0.162180000000     0.995290000000     0.0389065  
H109     H      0.530150000000     0.369050000000     0.956850000000     0.0477545  
H110     H      0.455900000000     0.325130000000     0.995250000000     0.0401381  
H111     H      0.496000000000     0.324010000000     0.954390000000     0.0411881  
H112     H      0.527740000000     0.208470000000     0.027600000000     0.0443768  
H113     H      0.494220000000     0.162270000000     0.034970000000     0.0459475  
H114     H      0.497300000000     0.358990000000     0.043130000000     0.0469469  
H115     H      0.444350000000     0.995960000000     0.708680000000     0.0473396  
H116     H      0.466700000000     0.951770000000     0.809440000000     0.040111   
H117     H      0.506830000000     0.042320000000     0.812430000000     0.0618887  
H118     H      0.540080000000     0.981220000000     0.629700000000     0.0434036  
H119     H      0.444110000000     0.976290000000     0.854760000000     0.0623827  
H120     H      0.475520000000     0.043770000000     0.672350000000     0.0417695  
H121     H      0.518220000000     0.954380000000     0.674260000000     0.0378165  
H122     H      0.470110000000     0.040100000000     0.614020000000     0.0507491  
H123     H      0.512750000000     0.037510000000     0.870760000000     0.0352491  
H124     H      0.438450000000     0.996510000000     0.765340000000     0.0560224  
H125     H      0.471650000000     0.947490000000     0.867770000000     0.0460553  
H126     H      0.544680000000     0.997690000000     0.719060000000     0.0473135  
H127     H      0.506110000000     0.957120000000     0.823340000000     0.0399851  
H128     H      0.514370000000     0.950970000000     0.616070000000     0.0468325  
H129     H      0.454070000000     0.010050000000     0.658790000000     0.0458505  
H130     H      0.478740000000     0.958560000000     0.660130000000     0.04464    
H131     H      0.538770000000     0.995200000000     0.775670000000     0.0437672  
H132     H      0.528830000000     0.009040000000     0.825680000000     0.0456522  
H133     H      0.509580000000     0.042770000000     0.627690000000     0.0431261  
H134     H      0.531830000000     0.991400000000     0.214650000000     0.0426575  
H135     H      0.458880000000     0.951370000000     0.311680000000     0.0383009  
H136     H      0.506820000000     0.038100000000     0.310920000000     0.0604681  
H137     H      0.442170000000     0.006550000000     0.127250000000     0.0456708  
H138     H      0.441120000000     0.977990000000     0.357800000000     0.0548904  
H139     H      0.508540000000     0.946940000000     0.173350000000     0.0369413  
H140     H      0.459080000000     0.032750000000     0.173890000000     0.0389455  
H141     H      0.519100000000     0.954000000000     0.115580000000     0.0462978  
H142     H      0.516440000000     0.032600000000     0.369000000000     0.033217   
H143     H      0.531360000000     0.993600000000     0.271100000000     0.0429347  
H144     H      0.467000000000     0.947180000000     0.369490000000     0.0440957  
H145     H      0.430930000000     0.988740000000     0.213600000000     0.0481709  
H146     H      0.499360000000     0.953640000000     0.323050000000     0.0400685  
H147     H      0.467520000000     0.038060000000     0.116220000000     0.0465266  
H148     H      0.527990000000     0.982810000000     0.162630000000     0.0386352  
H149     H      0.499670000000     0.031490000000     0.162780000000     0.0421097  
H150     H      0.430440000000     0.993880000000     0.270620000000     0.0522599  
H151     H      0.526490000000     0.002970000000     0.322990000000     0.0450961  
H152     H      0.479450000000     0.945450000000     0.125760000000     0.0424977  
H153     H      0.718700000000     0.433160000000     0.494420000000     0.0510691  
H154     H      0.815710000000     0.509880000000     0.444190000000     0.0429056  
H155     H      0.815370000000     0.463260000000     0.531480000000     0.0601149  
H156     H      0.630740000000     0.478790000000     0.539920000000     0.0523306  
H157     H      0.863410000000     0.480740000000     0.443190000000     0.0608914  
H158     H      0.677680000000     0.461410000000     0.451760000000     0.0391537  
H159     H      0.677940000000     0.508930000000     0.538530000000     0.0415412  
H160     H      0.619860000000     0.468380000000     0.447770000000     0.0474843  
H161     H      0.873240000000     0.470960000000     0.535840000000     0.0322715  
H162     H      0.775710000000     0.433660000000     0.487930000000     0.0608159  
H163     H      0.873830000000     0.520490000000     0.450660000000     0.0532583  
H164     H      0.718020000000     0.533950000000     0.492930000000     0.0444382  
H165     H      0.826720000000     0.530340000000     0.479330000000     0.0395091  
H166     H      0.619680000000     0.518500000000     0.532990000000     0.0554416  
H167     H      0.665770000000     0.501720000000     0.454060000000     0.0433271  
H168     H      0.666200000000     0.529050000000     0.503420000000     0.0411191  
H169     H      0.774640000000     0.534440000000     0.489300000000     0.0445268  
H170     H      0.827280000000     0.503370000000     0.528620000000     0.0478432  
H171     H      0.631920000000     0.443250000000     0.479060000000     0.0473615  
H172     H      0.217670000000     0.554630000000     0.483210000000     0.049023   
H173     H      0.314250000000     0.479650000000     0.537360000000     0.0401685  
H174     H      0.316250000000     0.526570000000     0.450210000000     0.0589413  
H175     H      0.129700000000     0.505700000000     0.439580000000     0.0424585  
H176     H      0.361390000000     0.509830000000     0.539630000000     0.0544158  
H177     H      0.177340000000     0.528020000000     0.526300000000     0.0392959  
H178     H      0.177380000000     0.476330000000     0.441930000000     0.0376146  
H179     H      0.119790000000     0.520980000000     0.531080000000     0.0508155  
H180     H      0.374240000000     0.519650000000     0.447710000000     0.0326196  
H181     H      0.274520000000     0.555150000000     0.490820000000     0.0592713  
H182     H      0.372610000000     0.470100000000     0.533200000000     0.0474519  
H183     H      0.218370000000     0.453920000000     0.487550000000     0.0436376  
H184     H      0.326770000000     0.459370000000     0.502600000000     0.0390436  
H185     H      0.119230000000     0.466260000000     0.448630000000     0.0471503  
H186     H      0.165820000000     0.487550000000     0.526050000000     0.0453436  
H187     H      0.166290000000     0.457780000000     0.478090000000     0.0406258  
H188     H      0.274880000000     0.454360000000     0.492250000000     0.0437119  
H189     H      0.328480000000     0.486560000000     0.453230000000     0.047254   
H190     H      0.131280000000     0.544320000000     0.498230000000     0.0447703  
H191     H      0.717160000000     0.487260000000     0.033800000000     0.0452993  
H192     H      0.815240000000     0.522810000000     0.965090000000     0.0387165  
H193     H      0.817330000000     0.438620000000     0.017140000000     0.0622327  
H194     H      0.633950000000     0.476270000000     0.939740000000     0.0452511  
H195     H      0.862920000000     0.497860000000     0.949520000000     0.0559442  
H196     H      0.681340000000     0.533530000000     0.005860000000     0.0386003  
H197     H      0.676830000000     0.445760000000     0.960170000000     0.0393783  
H198     H      0.622690000000     0.533000000000     0.012420000000     0.0520671  
H199     H      0.875220000000     0.448970000000     0.028970000000     0.0337448  
H200     H      0.773660000000     0.482870000000     0.036820000000     0.0445207  
H201     H      0.872400000000     0.530250000000     0.974300000000     0.0439004  
H202     H      0.722030000000     0.483760000000     0.933320000000     0.0492433  
H203     H      0.825690000000     0.522750000000     0.005770000000     0.0414369  
H204     H      0.618580000000     0.446090000000     0.964470000000     0.0476507  
H205     H      0.666070000000     0.499840000000     0.026190000000     0.0433956  
H206     H      0.663400000000     0.449650000000     0.999810000000     0.044965   
H207     H      0.778830000000     0.476450000000     0.936530000000     0.0536812  
H208     H      0.826580000000     0.475380000000     0.035150000000     0.0449994  
H209     H      0.635990000000     0.537030000000     0.973040000000     0.0450999  
H210     H      0.274380000000     0.495930000000     0.948750000000     0.0428615  
H211     H      0.178160000000     0.534870000000     0.021910000000     0.037862   
H212     H      0.179620000000     0.446010000000     0.978160000000     0.0607511  
H213     H      0.363440000000     0.480820000000     0.035990000000     0.044928   
H214     H      0.132990000000     0.507810000000     0.041800000000     0.0550124  
H215     H      0.316020000000     0.541910000000     0.971920000000     0.0371001  
H216     H      0.316700000000     0.454860000000     0.018980000000     0.0384787  
H217     H      0.373950000000     0.534810000000     0.959760000000     0.0471924  
H218     H      0.121050000000     0.449960000000     0.969530000000     0.0344815  
H219     H      0.217770000000     0.492180000000     0.950630000000     0.0439562  
H220     H      0.120150000000     0.537610000000     0.015310000000     0.0446193  
H221     H      0.277770000000     0.499600000000     0.049260000000     0.0479011  
H222     H      0.165850000000     0.530560000000     0.981950000000     0.0390636  
H223     H      0.374300000000     0.450120000000     0.009670000000     0.046105   
H224     H      0.326400000000     0.506570000000     0.951430000000     0.0389606  
H225     H      0.327300000000     0.457340000000     0.978400000000     0.0408907  
H226     H      0.220780000000     0.493010000000     0.051210000000     0.0528585  
H227     H      0.166470000000     0.479920000000     0.957100000000     0.0451367  
H228     H      0.364460000000     0.543270000000     0.999490000000     0.0426262  
H229     H      0.998070000000     0.538810000000     0.770510000000     0.0428308  
H230     H      0.957970000000     0.466480000000     0.676040000000     0.0404181  
H231     H      0.048020000000     0.507950000000     0.675050000000     0.0604325  
H232     H      0.020010000000     0.453980000000     0.859760000000     0.0531624  
H233     H      0.982900000000     0.445950000000     0.630120000000     0.0567487  
H234     H      0.952120000000     0.512040000000     0.812100000000     0.0389776  
H235     H      0.043240000000     0.473290000000     0.812860000000     0.0398173  
H236     H      0.958580000000     0.525420000000     0.869900000000     0.047501   
H237     H      0.042640000000     0.516770000000     0.616730000000     0.0330403  
H238     H      0.000590000000     0.536640000000     0.713870000000     0.0429952  
H239     H      0.953710000000     0.473580000000     0.618230000000     0.0469707  
H240     H      0.998260000000     0.438130000000     0.774590000000     0.0530503  
H241     H      0.962990000000     0.506410000000     0.663730000000     0.0405711  
H242     H      0.047130000000     0.484010000000     0.870490000000     0.046606   
H243     H      0.985490000000     0.535720000000     0.822260000000     0.0376427  
H244     H      0.036870000000     0.513560000000     0.823210000000     0.0404648  
H245     H      0.003410000000     0.435990000000     0.717590000000     0.0551908  
H246     H      0.014310000000     0.529930000000     0.662900000000     0.0444942  
H247     H      0.952680000000     0.485160000000     0.860590000000     0.0510795  
H248     H      0.950640000000     0.493850000000     0.210190000000     0.0455908  
H249     H      0.012180000000     0.445330000000     0.312770000000     0.0401333  
H250     H      0.975970000000     0.537530000000     0.311160000000     0.0596986  
H251     H      0.016620000000     0.447030000000     0.128880000000     0.0464707  
H252     H      0.979240000000     0.447960000000     0.357950000000     0.0550603  
H253     H      0.021140000000     0.536380000000     0.174720000000     0.0378254  
H254     H      0.983680000000     0.444700000000     0.174200000000     0.0394774  
H255     H      0.015420000000     0.539170000000     0.116450000000     0.0459153  
H256     H      0.981420000000     0.540490000000     0.369640000000     0.0315697  
H257     H      0.945260000000     0.492700000000     0.266950000000     0.0584644  
H258     H      0.018960000000     0.448920000000     0.371020000000     0.0465732  
H259     H      0.051030000000     0.491740000000     0.219590000000     0.0482167  
H260     H      0.035930000000     0.477600000000     0.325950000000     0.0387083  
H261     H      0.976800000000     0.447720000000     0.116010000000     0.0495699  
H262     H      0.981670000000     0.529760000000     0.161490000000     0.0414198  
H263     H      0.960120000000     0.477050000000     0.160890000000     0.0408374  
H264     H      0.045680000000     0.493490000000     0.276350000000     0.0436723  
H265     H      0.014910000000     0.530250000000     0.325080000000     0.0471418  
H266     H      0.043650000000     0.511110000000     0.129710000000     0.0464301  
H267     H      0.034490000000     0.714530000000     0.504610000000     0.0432574  
H268     H      0.963100000000     0.814070000000     0.542670000000     0.039373   
H269     H      0.009050000000     0.808830000000     0.455200000000     0.0616452  
H270     H      0.944980000000     0.627710000000     0.489210000000     0.0456902  
H271     H      0.944400000000     0.858750000000     0.514360000000     0.0616088  
H272     H      0.010360000000     0.672480000000     0.549790000000     0.0373677  
H273     H      0.961780000000     0.674960000000     0.463620000000     0.0402191  
H274     H      0.021010000000     0.614790000000     0.541710000000     0.0470116  
H275     H      0.018570000000     0.867320000000     0.457450000000     0.0360808  
H276     H      0.034300000000     0.771070000000     0.501100000000     0.0437439  
H277     H      0.971230000000     0.872200000000     0.543550000000     0.0458985  
H278     H      0.933660000000     0.714160000000     0.508910000000     0.0494284  
H279     H      0.003450000000     0.825450000000     0.538810000000     0.0402486  
H280     H      0.969860000000     0.617630000000     0.457030000000     0.0487994  
H281     H      0.030380000000     0.662680000000     0.514030000000     0.0395936  
H282     H      0.002390000000     0.663850000000     0.464890000000     0.0432846  
H283     H      0.933400000000     0.771140000000     0.502530000000     0.0549998  
H284     H      0.029400000000     0.822830000000     0.489160000000     0.0450243  
H285     H      0.981070000000     0.624690000000     0.549300000000     0.0422511  
H286     H      0.038850000000     0.269190000000     0.497650000000     0.044015   
H287     H      0.962470000000     0.175560000000     0.458040000000     0.0394561  
H288     H      0.010310000000     0.172590000000     0.544670000000     0.0618596  
H289     H      0.951580000000     0.359600000000     0.511560000000     0.0546385  
H290     H      0.943280000000     0.129470000000     0.483980000000     0.0569177  
H291     H      0.016920000000     0.310400000000     0.452760000000     0.0383231  
H292     H      0.967870000000     0.313300000000     0.538590000000     0.0419247  
H293     H      0.029220000000     0.368320000000     0.458780000000     0.0477112  
H294     H      0.018250000000     0.114240000000     0.537570000000     0.0357637  
H295     H      0.036420000000     0.212680000000     0.500410000000     0.0441429  
H296     H      0.968240000000     0.117780000000     0.452430000000     0.0458468  
H297     H      0.938050000000     0.273710000000     0.495790000000     0.0522069  
H298     H      0.002540000000     0.162740000000     0.459980000000     0.0416814  
H299     H      0.977720000000     0.371050000000     0.542190000000     0.0515131  
H300     H      0.036690000000     0.321510000000     0.488250000000     0.0399794  
H301     H      0.008660000000     0.323560000000     0.536720000000     0.0447131  
H302     H      0.935590000000     0.216710000000     0.501420000000     0.0544448  
H303     H      0.029750000000     0.160890000000     0.509330000000     0.0454568  
H304     H      0.989590000000     0.358800000000     0.449530000000     0.0466621  
H305     H      0.720490000000     0.034110000000     0.521620000000     0.049292   
H306     H      0.811240000000     0.024030000000     0.443620000000     0.0409489  
H307     H      0.808220000000     0.954820000000     0.514250000000     0.0618763  
H308     H      0.626030000000     0.044650000000     0.487040000000     0.0443017  
H309     H      0.856600000000     0.991920000000     0.434620000000     0.0552665  
H310     H      0.674310000000     0.965710000000     0.525800000000     0.0391472  
H311     H      0.670820000000     0.034300000000     0.454690000000     0.0384858  
H312     H      0.615980000000     0.959110000000     0.522480000000     0.0469272  
H313     H      0.866460000000     0.959150000000     0.520920000000     0.0380761  
H314     H      0.777220000000     0.028120000000     0.515220000000     0.0468685  
H315     H      0.869510000000     0.028560000000     0.450170000000     0.0480419  
H316     H      0.705060000000     0.962670000000     0.452490000000     0.0446732  
H317     H      0.823420000000     0.033630000000     0.482700000000     0.0430485  
H318     H      0.612430000000     0.027860000000     0.451230000000     0.0475956  
H319     H      0.660300000000     0.955360000000     0.487520000000     0.0409906  
H320     H      0.658280000000     0.994960000000     0.446470000000     0.0392274  
H321     H      0.761830000000     0.956650000000     0.446100000000     0.0563779  
H322     H      0.821960000000     0.993410000000     0.523360000000     0.0500249  
H323     H      0.628520000000     0.996230000000     0.537210000000     0.0434657  
H324     H      0.204330000000     0.957090000000     0.525820000000     0.0448349  
H325     H      0.310130000000     0.947920000000     0.465950000000     0.0402832  
H326     H      0.308820000000     0.018330000000     0.535450000000     0.0613476  
H327     H      0.127110000000     0.988840000000     0.441620000000     0.0519305  
H328     H      0.355200000000     0.937850000000     0.498110000000     0.0552031  
H329     H      0.172890000000     0.030840000000     0.520120000000     0.0390637  
H330     H      0.172160000000     0.957420000000     0.453890000000     0.0407799  
H331     H      0.114590000000     0.027230000000     0.525140000000     0.0484834  
H332     H      0.367310000000     0.023830000000     0.530850000000     0.0340499  
H333     H      0.260960000000     0.950980000000     0.533160000000     0.0557325  
H334     H      0.368330000000     0.952920000000     0.461400000000     0.0477071  
H335     H      0.221110000000     0.026010000000     0.454480000000     0.0498133  
H336     H      0.323220000000     0.986820000000     0.456540000000     0.0410592  
H337     H      0.113690000000     0.953180000000     0.458990000000     0.052928   
H338     H      0.159110000000     0.992680000000     0.531400000000     0.0397721  
H339     H      0.158780000000     0.950130000000     0.493070000000     0.0407067  
H340     H      0.277710000000     0.020080000000     0.461990000000     0.0452387  
H341     H      0.322580000000     0.027420000000     0.496920000000     0.0475025  
H342     H      0.127880000000     0.040330000000     0.487700000000     0.0458669  
H343     H      0.986390000000     0.714980000000     0.046710000000     0.049124   
H344     H      0.035550000000     0.811700000000     0.970840000000     0.0384753  
H345     H      0.946330000000     0.810950000000     0.013920000000     0.0602829  
H346     H      0.944810000000     0.625190000000     0.002540000000     0.0441723  
H347     H      0.035980000000     0.859320000000     0.999540000000     0.0525076  
H348     H      0.032170000000     0.675690000000     0.017370000000     0.0373149  
H349     H      0.944010000000     0.672120000000     0.972340000000     0.0369547  
H350     H      0.038290000000     0.617910000000     0.010300000000     0.045396   
H351     H      0.942220000000     0.869050000000     0.006090000000     0.0306664  
H352     H      0.990780000000     0.772140000000     0.045830000000     0.0595463  
H353     H      0.028810000000     0.869820000000     0.959830000000     0.0449167  
H354     H      0.989170000000     0.713550000000     0.946130000000     0.0420031  
H355     H      0.001010000000     0.822570000000     0.949230000000     0.0373759  
H356     H      0.951860000000     0.614060000000     0.962950000000     0.0465524  
H357     H      0.029150000000     0.663360000000     0.977310000000     0.039443   
H358     H      0.979130000000     0.661600000000     0.951500000000     0.0381161  
H359     H      0.990820000000     0.770280000000     0.945230000000     0.0423953  
H360     H      0.950880000000     0.823110000000     0.974110000000     0.0466055  
H361     H      0.007790000000     0.629030000000     0.036800000000     0.0449438  
H362     H      0.034070000000     0.212660000000     0.982180000000     0.0440353  
H363     H      0.968560000000     0.309530000000     0.024590000000     0.0411886  
H364     H      0.011220000000     0.313120000000     0.935400000000     0.0624324  
H365     H      0.943050000000     0.127780000000     0.968660000000     0.0521757  
H366     H      0.951050000000     0.358000000000     0.002570000000     0.0631837  
H367     H      0.004940000000     0.176320000000     0.030900000000     0.0385176  
H368     H      0.963870000000     0.172070000000     0.941040000000     0.0407843  
H369     H      0.013660000000     0.117910000000     0.029400000000     0.0484091  
H370     H      0.024100000000     0.370560000000     0.944900000000     0.035872   
H371     H      0.036220000000     0.269330000000     0.979400000000     0.0452202  
H372     H      0.979320000000     0.366420000000     0.032300000000     0.0484088  
H373     H      0.933260000000     0.216270000000     0.983550000000     0.0522756  
H374     H      0.009260000000     0.319580000000     0.020490000000     0.043368   
H375     H      0.970800000000     0.113800000000     0.940540000000     0.0481049  
H376     H      0.027370000000     0.162320000000     0.998080000000     0.038416   
H377     H      0.003790000000     0.159880000000     0.946840000000     0.0424916  
H378     H      0.935410000000     0.273310000000     0.978060000000     0.0568257  
H379     H      0.033390000000     0.321690000000     0.969980000000     0.0474067  
H380     H      0.973710000000     0.129950000000     0.032590000000     0.0475133  
H381     H      0.718260000000     0.952540000000     0.955990000000     0.0474249  
H382     H      0.807250000000     0.964670000000     0.034730000000     0.0400051  
H383     H      0.806570000000     0.032000000000     0.962250000000     0.0607282  
H384     H      0.624490000000     0.940870000000     0.991670000000     0.041462   
H385     H      0.852570000000     0.996710000000     0.044000000000     0.0555684  
H386     H      0.670260000000     0.019830000000     0.951070000000     0.0391733  
H387     H      0.669670000000     0.952280000000     0.023280000000     0.0378574  
H388     H      0.611970000000     0.025240000000     0.955300000000     0.0473698  
H389     H      0.865000000000     0.026860000000     0.957070000000     0.0337829  
H390     H      0.774920000000     0.959270000000     0.962260000000     0.04313    
H391     H      0.865520000000     0.959520000000     0.029850000000     0.0484042  
H392     H      0.702050000000     0.025040000000     0.023840000000     0.0450086  
H393     H      0.820330000000     0.953960000000     0.996220000000     0.0389107  
H394     H      0.611370000000     0.957310000000     0.027840000000     0.0462073  
H395     H      0.656850000000     0.030640000000     0.989450000000     0.0409572  
H396     H      0.656490000000     0.991460000000     0.031310000000     0.040183   
H397     H      0.758720000000     0.031790000000     0.030100000000     0.0554758  
H398     H      0.820150000000     0.993060000000     0.954500000000     0.0449167  
H399     H      0.624900000000     0.987880000000     0.941470000000     0.0417776  
H400     H      0.203240000000     0.032300000000     0.962000000000     0.0450816  
H401     H      0.308860000000     0.038430000000     0.022730000000     0.0420459  
H402     H      0.305680000000     0.967960000000     0.953370000000     0.0603688  
H403     H      0.123500000000     0.000680000000     0.043910000000     0.0445668  
H404     H      0.354260000000     0.047400000000     0.990830000000     0.0640298  
H405     H      0.171510000000     0.958780000000     0.966150000000     0.0384932  
H406     H      0.168950000000     0.031800000000     0.032760000000     0.0387293  
H407     H      0.113400000000     0.962450000000     0.959580000000     0.0470314  
H408     H      0.364050000000     0.960790000000     0.958220000000     0.0339555  
H409     H      0.260080000000     0.037110000000     0.955390000000     0.0586723  
H410     H      0.366910000000     0.031620000000     0.027420000000     0.0510438  
H411     H      0.217490000000     0.962550000000     0.033090000000     0.0474895  
H412     H      0.320840000000     0.999170000000     0.032130000000     0.0382994  
H413     H      0.110500000000     0.036100000000     0.025770000000     0.0469387  
H414     H      0.157950000000     0.997020000000     0.954880000000     0.0408026  
H415     H      0.156650000000     0.039200000000     0.993250000000     0.0398382  
H416     H      0.274290000000     0.967230000000     0.026370000000     0.0442726  
H417     H      0.319150000000     0.958660000000     0.991940000000     0.0450748  
H418     H      0.125740000000     0.948770000000     0.997130000000     0.0438774  
H419     H      0.990090000000     0.947350000000     0.768930000000     0.0425626  
H420     H      0.033910000000     0.015650000000     0.673080000000     0.0399419  
H421     H      0.941420000000     0.980000000000     0.673460000000     0.0609995  
H422     H      0.971510000000     0.033700000000     0.857100000000     0.0462319  
H423     H      0.010100000000     0.037430000000     0.627230000000     0.0608466  
H424     H      0.037560000000     0.972990000000     0.810730000000     0.0373384  
H425     H      0.947910000000     0.015050000000     0.810010000000     0.0411364  
H426     H      0.030080000000     0.960400000000     0.868510000000     0.0462494  
H427     H      0.945620000000     0.970370000000     0.615090000000     0.0348111  
H428     H      0.987640000000     0.948930000000     0.712210000000     0.0429903  
H429     H      0.036990000000     0.007630000000     0.615220000000     0.0463301  
H430     H      0.995360000000     0.047920000000     0.771700000000     0.0503962  
H431     H      0.026160000000     0.976040000000     0.661190000000     0.0389499  
H432     H      0.942810000000     0.005050000000     0.867560000000     0.0462914  
H433     H      0.003270000000     0.950540000000     0.820590000000     0.0380826  
H434     H      0.952580000000     0.974630000000     0.820690000000     0.0413934  
H435     H      0.990380000000     0.049610000000     0.714660000000     0.0559183  
H436     H      0.973550000000     0.955880000000     0.661130000000     0.0446315  
H437     H      0.037030000000     0.000460000000     0.859020000000     0.0454176  
H438     H      0.049870000000     0.985560000000     0.211870000000     0.0496675  
H439     H      0.979640000000     0.038880000000     0.309100000000     0.0398002  
H440     H      0.019290000000     0.948120000000     0.311170000000     0.0619769  
H441     H      0.003040000000     0.942750000000     0.124250000000     0.0508288  
H442     H      0.009990000000     0.038810000000     0.356050000000     0.0540432  
H443     H      0.017170000000     0.031020000000     0.173220000000     0.0384105  
H444     H      0.975190000000     0.941360000000     0.172600000000     0.0416778  
H445     H      0.007230000000     0.036260000000     0.115940000000     0.0469238  
H446     H      0.011580000000     0.946140000000     0.369210000000     0.0385619  
H447     H      0.051260000000     0.991570000000     0.268810000000     0.0592167  
H448     H      0.969820000000     0.035670000000     0.367250000000     0.0472356  
H449     H      0.949040000000     0.987710000000     0.214410000000     0.0440632  
H450     H      0.956550000000     0.005900000000     0.321670000000     0.0410203  
H451     H      0.962640000000     0.948340000000     0.115000000000     0.0545886  
H452     H      0.976610000000     0.026430000000     0.162830000000     0.0423587  
H453     H      0.952490000000     0.975510000000     0.162830000000     0.0405912  
H454     H      0.950410000000     0.991080000000     0.271000000000     0.0448509  
H455     H      0.979570000000     0.954350000000     0.323250000000     0.0514038  
H456     H      0.035310000000     0.006820000000     0.126010000000     0.045932   
N1       N      0.499030000000     0.493190000000     0.608110000000    -0.164028   
N2       N      0.504730000000     0.490270000000     0.673400000000    -0.100121   
N3       N      0.503240000000     0.498270000000     0.806380000000    -0.111666   
N4       N      0.496710000000     0.494000000000     0.871470000000    -0.156381   
N5       N      0.501700000000     0.491900000000     0.107920000000    -0.165113   
N6       N      0.505240000000     0.484310000000     0.172960000000    -0.100834   
N7       N      0.492960000000     0.480530000000     0.305540000000    -0.112376   
N8       N      0.494330000000     0.485580000000     0.370950000000    -0.156654   
N9       N      0.505030000000     0.610610000000     0.479950000000    -0.1635     
N10      N      0.508190000000     0.676540000000     0.477290000000    -0.100834   
N11      N      0.491610000000     0.807410000000     0.496540000000    -0.112429   
N12      N      0.492750000000     0.873320000000     0.494550000000    -0.157146   
N13      N      0.494280000000     0.374170000000     0.492670000000    -0.164664   
N14      N      0.495050000000     0.308350000000     0.496500000000    -0.100645   
N15      N      0.478290000000     0.176940000000     0.481810000000    -0.112285   
N16      N      0.482180000000     0.111160000000     0.485630000000    -0.156278   
N17      N      0.501660000000     0.612610000000     0.988670000000    -0.165949   
N18      N      0.502920000000     0.678460000000     0.986850000000    -0.101129   
N19      N      0.481090000000     0.808930000000     0.002080000000    -0.112024   
N20      N      0.482460000000     0.874720000000     0.998410000000    -0.158299   
N21      N      0.490170000000     0.112220000000     0.991300000000    -0.164862   
N22      N      0.487740000000     0.177900000000     0.988090000000    -0.100586   
N23      N      0.502990000000     0.309450000000     0.001620000000    -0.111325   
N24      N      0.499900000000     0.375050000000     0.996600000000    -0.157697   
N25      N      0.485570000000     0.995300000000     0.873860000000    -0.164409   
N26      N      0.483090000000     0.998700000000     0.808260000000    -0.100702   
N27      N      0.500100000000     0.000650000000     0.676180000000    -0.110776   
N28      N      0.497730000000     0.998060000000     0.610560000000    -0.157211   
N29      N      0.484990000000     0.993770000000     0.374260000000    -0.165874   
N30      N      0.478880000000     0.996890000000     0.308950000000    -0.101285   
N31      N      0.479970000000     0.987600000000     0.175950000000    -0.112942   
N32      N      0.486440000000     0.991950000000     0.110800000000    -0.158067   
N33      N      0.878640000000     0.488820000000     0.489380000000    -0.164312   
N34      N      0.813300000000     0.482580000000     0.485620000000    -0.100009   
N35      N      0.680280000000     0.481460000000     0.497210000000    -0.111634   
N36      N      0.614860000000     0.487130000000     0.494020000000    -0.156085   
N37      N      0.378320000000     0.501250000000     0.494130000000    -0.164899   
N38      N      0.312750000000     0.506900000000     0.495840000000    -0.100355   
N39      N      0.179850000000     0.505790000000     0.481850000000    -0.112211   
N40      N      0.114460000000     0.499490000000     0.486020000000    -0.156704   
N41      N      0.879330000000     0.484730000000     0.994190000000    -0.165595   
N42      N      0.814440000000     0.477970000000     0.986830000000    -0.100858   
N43      N      0.681910000000     0.491290000000     0.979610000000    -0.11264    
N44      N      0.616280000000     0.492850000000     0.982720000000    -0.156298   
N45      N      0.115790000000     0.490300000000     0.998960000000    -0.165729   
N46      N      0.181350000000     0.488570000000     0.003930000000    -0.100791   
N47      N      0.314220000000     0.500590000000     0.999490000000    -0.11297    
N48      N      0.379350000000     0.496800000000     0.992090000000    -0.157929   
N49      N      0.001480000000     0.488240000000     0.612570000000    -0.165063   
N50      N      0.004850000000     0.483210000000     0.677880000000    -0.100485   
N51      N      0.995780000000     0.488210000000     0.810560000000    -0.11138    
N52      N      0.998620000000     0.495670000000     0.875450000000    -0.155916   
N53      N      0.993300000000     0.492120000000     0.374930000000    -0.165354   
N54      N      0.990310000000     0.489900000000     0.309350000000    -0.10055    
N55      N      0.005920000000     0.489110000000     0.177200000000    -0.11222    
N56      N      0.002290000000     0.490980000000     0.111640000000    -0.156598   
N57      N      0.987640000000     0.874530000000     0.496290000000    -0.163849   
N58      N      0.981970000000     0.809060000000     0.496950000000    -0.100337   
N59      N      0.982420000000     0.676130000000     0.508860000000    -0.112391   
N60      N      0.989500000000     0.610990000000     0.502720000000    -0.157405   
N61      N      0.986810000000     0.111070000000     0.498560000000    -0.16442    
N62      N      0.982620000000     0.176590000000     0.503510000000    -0.100537   
N63      N      0.988340000000     0.309650000000     0.493410000000    -0.111361   
N64      N      0.995860000000     0.374850000000     0.495710000000    -0.155396   
N65      N      0.872870000000     0.989070000000     0.481110000000    -0.163621   
N66      N      0.806930000000     0.986880000000     0.476270000000    -0.100887   
N67      N      0.675400000000     0.002730000000     0.492700000000    -0.111287   
N68      N      0.609470000000     0.998370000000     0.491780000000    -0.157374   
N69      N      0.372610000000     0.984010000000     0.500770000000    -0.164689   
N70      N      0.306620000000     0.980540000000     0.503210000000    -0.101127   
N71      N      0.175440000000     0.996460000000     0.484390000000    -0.113045   
N72      N      0.109460000000     0.994510000000     0.487310000000    -0.156164   
N73      N      0.989710000000     0.874490000000     0.991040000000    -0.165978   
N74      N      0.993120000000     0.809290000000     0.996690000000    -0.100446   
N75      N      0.985950000000     0.676190000000     0.998760000000    -0.113231   
N76      N      0.991340000000     0.610990000000     0.993920000000    -0.158314   
N77      N      0.994420000000     0.374100000000     0.985120000000    -0.163841   
N78      N      0.985530000000     0.309460000000     0.977830000000    -0.100539   
N79      N      0.980590000000     0.176710000000     0.987580000000    -0.112418   
N80      N      0.985230000000     0.111260000000     0.988460000000    -0.156569   
N81      N      0.870050000000     0.998110000000     0.997880000000    -0.165463   
N82      N      0.804120000000     0.001010000000     0.001030000000    -0.0986467  
N83      N      0.672860000000     0.983500000000     0.984830000000    -0.113616   
N84      N      0.606950000000     0.986830000000     0.987380000000    -0.158448   
N85      N      0.370370000000     0.000780000000     0.987820000000    -0.162238   
N86      N      0.304590000000     0.005960000000     0.985410000000    -0.100694   
N87      N      0.172970000000     0.992820000000     0.002280000000    -0.111915   
N88      N      0.107170000000     0.994530000000     0.997800000000    -0.158156   
N89      N      0.988240000000     0.996500000000     0.610200000000    -0.16443    
N90      N      0.986060000000     0.002040000000     0.675550000000    -0.0993989  
N91      N      0.994770000000     0.998270000000     0.808360000000    -0.112093   
N92      N      0.990670000000     0.991140000000     0.873330000000    -0.157794   
N93      N      0.997690000000     0.994150000000     0.373130000000    -0.164572   
N94      N      0.003440000000     0.995230000000     0.307750000000    -0.101006   
N95      N      0.000240000000     0.984240000000     0.175080000000    -0.112145   
N96      N      0.992120000000     0.988760000000     0.110130000000    -0.156703   
O1       O      0.988590000000     0.992870000000     0.991870000000    -0.370255   
O2       O      0.973750000000     0.970420000000     0.063410000000    -0.294743   
O3       O      0.059410000000     0.014070000000     0.012220000000    -0.299316   
O4       O      0.009390000000     0.921480000000     0.974820000000    -0.303243   
O5       O      0.004450000000     0.012040000000     0.063850000000    -0.300818   
O6       O      0.968430000000     0.920920000000     0.006430000000    -0.292271   
O7       O      0.061480000000     0.976180000000     0.977160000000    -0.303419   
O8       O      0.968790000000     0.006310000000     0.919490000000    -0.302261   
O9       O      0.002630000000     0.065740000000     0.010240000000    -0.301566   
O10      O      0.010500000000     0.975660000000     0.920510000000    -0.302431   
O11      O      0.971370000000     0.063490000000     0.969140000000    -0.298978   
O12      O      0.916460000000     0.011830000000     0.975120000000    -0.294961   
O13      O      0.916750000000     0.976820000000     0.013080000000    -0.300094   
O14      O      0.990900000000     0.992930000000     0.491540000000    -0.368803   
O15      O      0.979050000000     0.014380000000     0.418940000000    -0.300225   
O16      O      0.062400000000     0.973120000000     0.473250000000    -0.296333   
O17      O      0.006990000000     0.063980000000     0.513840000000    -0.294198   
O18      O      0.008650000000     0.972020000000     0.420360000000    -0.288365   
O19      O      0.972880000000     0.065250000000     0.475010000000    -0.300869   
O20      O      0.063070000000     0.011950000000     0.507390000000    -0.30108    
O21      O      0.967670000000     0.980440000000     0.563580000000    -0.294471   
O22      O      0.006410000000     0.919900000000     0.475280000000    -0.294381   
O23      O      0.011540000000     0.007860000000     0.563620000000    -0.298431   
O24      O      0.972650000000     0.922500000000     0.514370000000    -0.297685   
O25      O      0.918340000000     0.974620000000     0.505240000000    -0.289721   
O26      O      0.920330000000     0.009960000000     0.467570000000    -0.296252   
O27      O      0.997500000000     0.492340000000     0.993540000000    -0.369953   
O28      O      0.013230000000     0.421510000000     0.968960000000    -0.291279   
O29      O      0.984220000000     0.471330000000     0.065480000000    -0.302433   
O30      O      0.068780000000     0.512370000000     0.011340000000    -0.302268   
O31      O      0.982500000000     0.419450000000     0.010380000000    -0.297204   
O32      O      0.069660000000     0.471960000000     0.979110000000    -0.297673   
O33      O      0.014890000000     0.513050000000     0.064720000000    -0.300992   
O34      O      0.974160000000     0.563400000000     0.976780000000    -0.304798   
O35      O      0.927010000000     0.469670000000     0.013450000000    -0.292352   
O36      O      0.014210000000     0.565350000000     0.009380000000    -0.304004   
O37      O      0.924880000000     0.506520000000     0.977290000000    -0.303803   
O38      O      0.977050000000     0.509750000000     0.922240000000    -0.299793   
O39      O      0.019550000000     0.480130000000     0.921910000000    -0.299579   
O40      O      0.996730000000     0.493210000000     0.493750000000    -0.368889   
O41      O      0.979320000000     0.422160000000     0.514030000000    -0.295045   
O42      O      0.010370000000     0.472370000000     0.421470000000    -0.303389   
O43      O      0.925270000000     0.508860000000     0.472320000000    -0.296874   
O44      O      0.014640000000     0.420970000000     0.476240000000    -0.299379   
O45      O      0.925160000000     0.475370000000     0.511700000000    -0.294032   
O46      O      0.980910000000     0.514800000000     0.421590000000    -0.292882   
O47      O      0.011040000000     0.564290000000     0.517460000000    -0.302248   
O48      O      0.067940000000     0.477500000000     0.471050000000    -0.300637   
O49      O      0.976790000000     0.565110000000     0.478690000000    -0.302303   
O50      O      0.068080000000     0.513430000000     0.508310000000    -0.30128    
O51      O      0.019800000000     0.506410000000     0.565830000000    -0.297799   
O52      O      0.977840000000     0.476330000000     0.566310000000    -0.302746   
O53      O      0.488510000000     0.993260000000     0.992230000000    -0.368537   
O54      O      0.416390000000     0.978300000000     0.972210000000    -0.291029   
O55      O      0.470500000000     0.012330000000     0.064160000000    -0.30218    
O56      O      0.504080000000     0.921450000000     0.012290000000    -0.304361   
O57      O      0.417430000000     0.014520000000     0.009060000000    -0.295019   
O58      O      0.466850000000     0.920980000000     0.976500000000    -0.302398   
O59      O      0.506070000000     0.974760000000     0.064270000000    -0.30418    
O60      O      0.560500000000     0.008140000000     0.971520000000    -0.301887   
O61      O      0.472180000000     0.065770000000     0.010460000000    -0.293568   
O62      O      0.560180000000     0.972690000000     0.009170000000    -0.302307   
O63      O      0.509140000000     0.065160000000     0.974450000000    -0.299467   
O64      O      0.503800000000     0.013210000000     0.920620000000    -0.29519    
O65      O      0.471430000000     0.972840000000     0.920180000000    -0.295794   
O66      O      0.490770000000     0.992510000000     0.492540000000    -0.36664    
O67      O      0.419060000000     0.006330000000     0.515380000000    -0.292162   
O68      O      0.470800000000     0.972950000000     0.421290000000    -0.301988   
O69      O      0.505250000000     0.064960000000     0.471960000000    -0.299588   
O70      O      0.419130000000     0.970660000000     0.477990000000    -0.300785   
O71      O      0.467690000000     0.064480000000     0.507360000000    -0.300964   
O72      O      0.505530000000     0.011300000000     0.420240000000    -0.296944   
O73      O      0.563660000000     0.977150000000     0.509570000000    -0.302141   
O74      O      0.474390000000     0.919660000000     0.475410000000    -0.303164   
O75      O      0.561750000000     0.013470000000     0.472800000000    -0.300942   
O76      O      0.511550000000     0.920590000000     0.511250000000    -0.30186    
O77      O      0.510770000000     0.975340000000     0.564130000000    -0.301426   
O78      O      0.477480000000     0.014990000000     0.564180000000    -0.297686   
O79      O      0.498040000000     0.493830000000     0.989780000000    -0.368386   
O80      O      0.426100000000     0.514940000000     0.973360000000    -0.302766   
O81      O      0.479900000000     0.422390000000     0.011360000000    -0.300909   
O82      O      0.512330000000     0.472750000000     0.917850000000    -0.302369   
O83      O      0.426020000000     0.476040000000     0.007410000000    -0.304465   
O84      O      0.479980000000     0.513170000000     0.918370000000    -0.298832   
O85      O      0.515240000000     0.420790000000     0.973810000000    -0.304136   
O86      O      0.570960000000     0.512100000000     0.003460000000    -0.296894   
O87      O      0.479250000000     0.478530000000     0.061520000000    -0.303181   
O88      O      0.568420000000     0.473470000000     0.969230000000    -0.301795   
O89      O      0.520790000000     0.509470000000     0.061150000000    -0.294665   
O90      O      0.518010000000     0.565720000000     0.008680000000    -0.300833   
O91      O      0.481980000000     0.566060000000     0.971690000000    -0.297858   
O92      O      0.496500000000     0.492710000000     0.489490000000    -0.367846   
O93      O      0.482480000000     0.564070000000     0.466080000000    -0.289805   
O94      O      0.512570000000     0.514760000000     0.561220000000    -0.291367   
O95      O      0.424210000000     0.479670000000     0.511400000000    -0.302077   
O96      O      0.518490000000     0.564440000000     0.503200000000    -0.300596   
O97      O      0.425430000000     0.513430000000     0.472280000000    -0.294625   
O98      O      0.481000000000     0.473830000000     0.561770000000    -0.29788    
O99      O      0.513750000000     0.420160000000     0.473490000000    -0.301584   
O100     O      0.568370000000     0.507430000000     0.510980000000    -0.295162   
O101     O      0.475180000000     0.421710000000     0.507920000000    -0.294534   
O102     O      0.568190000000     0.473160000000     0.472330000000    -0.301931   
O103     O      0.515320000000     0.472320000000     0.418130000000    -0.303501   
O104     O      0.476150000000     0.506040000000     0.416790000000    -0.298523   
Zn1      Zn     0.962440000000     0.966020000000     0.017790000000     0.456433   
Zn2      Zn     0.012910000000     0.020670000000     0.018600000000     0.454406   
Zn3      Zn     0.016660000000     0.967350000000     0.966610000000     0.450653   
Zn4      Zn     0.962020000000     0.017560000000     0.964480000000     0.454811   
Zn5      Zn     0.966530000000     0.019990000000     0.463990000000     0.45651    
Zn6      Zn     0.016280000000     0.964960000000     0.466100000000     0.458061   
Zn7      Zn     0.017670000000     0.018220000000     0.518230000000     0.456697   
Zn8      Zn     0.963200000000     0.968560000000     0.518210000000     0.458507   
Zn9      Zn     0.024430000000     0.467310000000     0.966730000000     0.457904   
Zn10     Zn     0.973610000000     0.464280000000     0.020320000000     0.459045   
Zn11     Zn     0.023010000000     0.520250000000     0.018790000000     0.453594   
Zn12     Zn     0.969320000000     0.517360000000     0.968130000000     0.455004   
Zn13     Zn     0.970470000000     0.467890000000     0.520820000000     0.459686   
Zn14     Zn     0.021940000000     0.466570000000     0.466630000000     0.45244    
Zn15     Zn     0.971000000000     0.519950000000     0.467260000000     0.455288   
Zn16     Zn     0.023180000000     0.518660000000     0.520580000000     0.453845   
Zn17     Zn     0.461840000000     0.966760000000     0.966010000000     0.45329    
Zn18     Zn     0.463080000000     0.020510000000     0.018480000000     0.459352   
Zn19     Zn     0.514330000000     0.966700000000     0.018720000000     0.450569   
Zn20     Zn     0.514960000000     0.019250000000     0.965750000000     0.455886   
Zn21     Zn     0.464500000000     0.018890000000     0.519100000000     0.454214   
Zn22     Zn     0.464680000000     0.964880000000     0.467270000000     0.453172   
Zn23     Zn     0.515490000000     0.019540000000     0.465330000000     0.454122   
Zn24     Zn     0.518340000000     0.966830000000     0.518450000000     0.448593   
Zn25     Zn     0.472060000000     0.521020000000     0.964040000000     0.453919   
Zn26     Zn     0.471370000000     0.468470000000     0.016450000000     0.454718   
Zn27     Zn     0.522410000000     0.465880000000     0.963300000000     0.453994   
Zn28     Zn     0.526010000000     0.519580000000     0.015290000000     0.454403   
Zn29     Zn     0.470890000000     0.518370000000     0.461900000000     0.45698    
Zn30     Zn     0.522880000000     0.519290000000     0.515550000000     0.457589   
Zn31     Zn     0.469720000000     0.467640000000     0.516610000000     0.455317   
Zn32     Zn     0.522690000000     0.465550000000     0.463970000000     0.45447    


