data_structure

_audit_creation_method RASPA-1.0
_audit_creation_date 2023-5-19
_audit_author_name 'Poobodin Mano'

_cell_length_a    34.4737
_cell_length_b    34.4672
_cell_length_c    34.6022
_cell_angle_alpha 90
_cell_angle_beta  90
_cell_angle_gamma 90
_cell_volume      41114.7

_symmetry_cell_setting          triclinic
_symmetry_space_group_name_Hall 'P 1'
_symmetry_space_group_name_H-M  'P 1'
_symmetry_Int_Tables_number     1

_symmetry_equiv_pos_as_xyz 'x,y,z'

loop_
_atom_site_label
_atom_site_type_symbol
_atom_site_fract_x
_atom_site_fract_y
_atom_site_fract_z
_atom_site_charge
C1       C      0.991850000000     0.007860000000     0.105010000000     0.376022   
C2       C      0.104250000000     0.992240000000     0.998860000000     0.374011   
C3       C      0.987660000000     0.895900000000     0.003720000000     0.375065   
C4       C      0.997790000000     0.000710000000     0.891280000000     0.376604   
C5       C      0.008860000000     0.110550000000     0.997620000000     0.374676   
C6       C      0.889270000000     0.013010000000     0.992630000000     0.374935   
C7       C      0.993590000000     0.005280000000     0.388850000000     0.377703   
C8       C      0.105720000000     0.994230000000     0.493100000000     0.377006   
C9       C      0.001750000000     0.102700000000     0.504100000000     0.377264   
C10      C      0.001310000000     0.985260000000     0.602790000000     0.37716    
C11      C      0.997020000000     0.888860000000     0.484020000000     0.37754    
C12      C      0.891640000000     0.998080000000     0.501680000000     0.377125   
C13      C      0.977510000000     0.502370000000     0.105640000000     0.375974   
C14      C      0.004560000000     0.396260000000     0.999670000000     0.374683   
C15      C      0.887510000000     0.492970000000     0.983890000000     0.375486   
C16      C      0.008770000000     0.505460000000     0.892870000000     0.374407   
C17      C      0.099520000000     0.513940000000     0.015400000000     0.375809   
C18      C      0.983290000000     0.611160000000     0.999290000000     0.37455    
C19      C      0.003480000000     0.392620000000     0.511230000000     0.376587   
C20      C      0.993460000000     0.488690000000     0.395350000000     0.376833   
C21      C      0.894820000000     0.500640000000     0.511150000000     0.376427   
C22      C      0.002350000000     0.605980000000     0.490580000000     0.376791   
C23      C      0.108630000000     0.500670000000     0.495960000000     0.377108   
C24      C      0.008270000000     0.508910000000     0.610050000000     0.376025   
C25      C      0.391760000000     0.979790000000     0.001740000000     0.374457   
C26      C      0.509090000000     0.979550000000     0.097310000000     0.374802   
C27      C      0.506520000000     0.881210000000     0.979950000000     0.374911   
C28      C      0.606330000000     0.995040000000     0.980410000000     0.373896   
C29      C      0.493950000000     0.095460000000     0.000140000000     0.375069   
C30      C      0.485890000000     0.998240000000     0.884760000000     0.375932   
C31      C      0.391300000000     0.994280000000     0.491250000000     0.377179   
C32      C      0.496700000000     0.101240000000     0.497720000000     0.377803   
C33      C      0.496040000000     0.988780000000     0.602110000000     0.377055   
C34      C      0.605270000000     0.994750000000     0.499360000000     0.376555   
C35      C      0.503580000000     0.997600000000     0.386840000000     0.376296   
C36      C      0.497060000000     0.886800000000     0.489380000000     0.377874   
C37      C      0.380700000000     0.487660000000     0.001480000000     0.377096   
C38      C      0.488880000000     0.382010000000     0.003040000000     0.3753     
C39      C      0.489470000000     0.487710000000     0.893780000000     0.376946   
C40      C      0.596790000000     0.491400000000     0.999750000000     0.376272   
C41      C      0.491160000000     0.492440000000     0.107050000000     0.377899   
C42      C      0.485750000000     0.597600000000     0.997550000000     0.374868   
C43      C      0.395270000000     0.492170000000     0.496400000000     0.377832   
C44      C      0.501340000000     0.601200000000     0.498270000000     0.37729    
C45      C      0.496880000000     0.496440000000     0.609220000000     0.378782   
C46      C      0.610010000000     0.495220000000     0.509420000000     0.377477   
C47      C      0.509040000000     0.492420000000     0.394810000000     0.379274   
C48      C      0.503680000000     0.387330000000     0.502920000000     0.376821   
C49      C      0.521250000000     0.533120000000     0.743790000000    -0.0431518  
C50      C      0.521900000000     0.519480000000     0.672070000000    -0.0226413  
C51      C      0.521290000000     0.480900000000     0.791060000000     0.0183325  
C52      C      0.521700000000     0.505970000000     0.713560000000     0.0183553  
C53      C      0.520230000000     0.467390000000     0.832530000000    -0.0228317  
C54      C      0.523940000000     0.466230000000     0.722460000000    -0.0398976  
C55      C      0.523210000000     0.453790000000     0.760860000000    -0.0428356  
C56      C      0.521380000000     0.520700000000     0.782210000000    -0.0400897  
C57      C      0.496370000000     0.547350000000     0.269790000000    -0.0413723  
C58      C      0.481800000000     0.510910000000     0.331560000000    -0.0225635  
C59      C      0.512900000000     0.513300000000     0.210560000000     0.0190189  
C60      C      0.493900000000     0.511920000000     0.289700000000     0.0184989  
C61      C      0.522020000000     0.513700000000     0.167960000000    -0.0230761  
C62      C      0.501110000000     0.477200000000     0.269720000000    -0.0413781  
C63      C      0.511160000000     0.477940000000     0.230650000000    -0.0419313  
C64      C      0.505650000000     0.548030000000     0.230500000000    -0.0414279  
C65      C      0.460850000000     0.731320000000     0.459340000000    -0.0430612  
C66      C      0.480160000000     0.660990000000     0.465420000000    -0.0227158  
C67      C      0.508730000000     0.783070000000     0.460210000000     0.0181268  
C68      C      0.490230000000     0.703560000000     0.464340000000     0.0179439  
C69      C      0.518430000000     0.825720000000     0.458770000000    -0.0225957  
C70      C      0.529110000000     0.715810000000     0.465540000000    -0.0402198  
C71      C      0.538240000000     0.755270000000     0.464030000000    -0.0427093  
C72      C      0.470040000000     0.770690000000     0.457010000000    -0.0407979  
C73      C      0.540980000000     0.253540000000     0.473600000000    -0.0431752  
C74      C      0.526640000000     0.325360000000     0.475340000000    -0.0228732  
C75      C      0.489290000000     0.205620000000     0.470700000000     0.0181274  
C76      C      0.513540000000     0.283620000000     0.473910000000     0.0183113  
C77      C      0.476240000000     0.163860000000     0.469580000000    -0.022658   
C78      C      0.473940000000     0.274400000000     0.470760000000    -0.0401099  
C79      C      0.461900000000     0.235730000000     0.469670000000    -0.0429624  
C80      C      0.528980000000     0.214890000000     0.471690000000    -0.040051   
C81      C      0.447970000000     0.728900000000     0.991110000000    -0.0425073  
C82      C      0.455490000000     0.657980000000     0.973670000000    -0.0228196  
C83      C      0.482460000000     0.779170000000     0.955700000000     0.0190149  
C84      C      0.466390000000     0.700110000000     0.969000000000     0.0182627  
C85      C      0.487330000000     0.821410000000     0.945390000000    -0.023887   
C86      C      0.494320000000     0.711060000000     0.941570000000    -0.0401971  
C87      C      0.502230000000     0.750290000000     0.934890000000    -0.0430522  
C88      C      0.455850000000     0.768140000000     0.984400000000    -0.0403992  
C89      C      0.442080000000     0.256010000000     0.004040000000    -0.0417384  
C90      C      0.460930000000     0.322040000000     0.029780000000    -0.0225373  
C91      C      0.470590000000     0.197040000000     0.030150000000     0.0178879  
C92      C      0.466180000000     0.278640000000     0.027770000000     0.0176512  
C93      C      0.470040000000     0.153460000000     0.034470000000    -0.0227221  
C94      C      0.493980000000     0.260210000000     0.051070000000    -0.0412836  
C95      C      0.496110000000     0.219710000000     0.052320000000    -0.0420724  
C96      C      0.444200000000     0.215510000000     0.005310000000    -0.041099   
C97      C      0.492130000000     0.945260000000     0.731210000000    -0.0425682  
C98      C      0.473410000000     0.955990000000     0.661340000000    -0.0229083  
C99      C      0.457930000000     0.977940000000     0.783320000000     0.0189133  
C100     C      0.469500000000     0.965000000000     0.703790000000     0.0185324  
C101     C      0.448990000000     0.981630000000     0.825800000000    -0.0236424  
C102     C      0.442310000000     0.992560000000     0.716370000000    -0.0403116  
C103     C      0.436500000000     0.998940000000     0.755850000000    -0.0429813  
C104     C      0.486280000000     0.951590000000     0.770700000000    -0.0402701  
C105     C      0.539310000000     0.009790000000     0.259950000000    -0.0416471  
C106     C      0.531810000000     0.976220000000     0.324480000000    -0.0219493  
C107     C      0.500410000000     0.991070000000     0.204350000000     0.0179494  
C108     C      0.522390000000     0.980110000000     0.282070000000     0.0172985  
C109     C      0.487860000000     0.997670000000     0.163090000000    -0.0227943  
C110     C      0.494370000000     0.955980000000     0.265030000000    -0.040694   
C111     C      0.483630000000     0.961270000000     0.226410000000    -0.0419946  
C112     C      0.528570000000     0.015080000000     0.221330000000    -0.0413476  
C113     C      0.725250000000     0.470150000000     0.545920000000    -0.0404553  
C114     C      0.669470000000     0.517770000000     0.542200000000    -0.0226573  
C115     C      0.792300000000     0.491910000000     0.545570000000     0.0184139  
C116     C      0.712310000000     0.508720000000     0.543030000000     0.0181543  
C117     C      0.835150000000     0.482980000000     0.546570000000    -0.022889   
C118     C      0.739700000000     0.538870000000     0.542920000000    -0.0425775  
C119     C      0.779330000000     0.530550000000     0.544490000000    -0.0406773  
C120     C      0.764900000000     0.461800000000     0.546710000000    -0.0424722  
C121     C      0.278760000000     0.464870000000     0.465860000000    -0.0403536  
C122     C      0.334750000000     0.512390000000     0.464130000000    -0.0224432  
C123     C      0.211810000000     0.486920000000     0.465190000000     0.0181007  
C124     C      0.291890000000     0.503460000000     0.465160000000     0.0179463  
C125     C      0.168950000000     0.477980000000     0.464930000000    -0.0226338  
C126     C      0.264620000000     0.533640000000     0.462960000000    -0.0427623  
C127     C      0.224940000000     0.525420000000     0.462620000000    -0.0405782  
C128     C      0.239080000000     0.456690000000     0.466380000000    -0.0426931  
C129     C      0.763340000000     0.471410000000     0.016050000000    -0.0407738  
C130     C      0.820690000000     0.513670000000     0.998940000000    -0.0224703  
C131     C      0.702300000000     0.476250000000     0.981190000000     0.0178825  
C132     C      0.779700000000     0.500010000000     0.992190000000     0.0180443  
C133     C      0.660000000000     0.465780000000     0.977180000000    -0.0224622  
C134     C      0.757490000000     0.515700000000     0.961980000000    -0.0419032  
C135     C      0.719000000000     0.504080000000     0.956660000000    -0.0409751  
C136     C      0.724850000000     0.459780000000     0.010740000000    -0.041493   
C137     C      0.268610000000     0.501280000000     0.056380000000    -0.0400889  
C138     C      0.319920000000     0.458900000000     0.026060000000    -0.0226723  
C139     C      0.200000000000     0.490690000000     0.044020000000     0.0191839  
C140     C      0.278220000000     0.471130000000     0.030840000000     0.0181731  
C141     C      0.158090000000     0.498310000000     0.053790000000    -0.0238621  
C142     C      0.248520000000     0.451960000000     0.010670000000    -0.042464   
C143     C      0.209690000000     0.461580000000     0.017320000000    -0.0402437  
C144     C      0.229790000000     0.510940000000     0.062990000000    -0.0433205  
C145     C      0.008550000000     0.558540000000     0.733550000000    -0.0415173  
C146     C      0.035290000000     0.541470000000     0.667610000000    -0.0224332  
C147     C      0.037560000000     0.533010000000     0.792380000000     0.0186621  
C148     C      0.035000000000     0.537320000000     0.711050000000     0.0181354  
C149     C      0.041360000000     0.533590000000     0.835850000000    -0.0231873  
C150     C      0.061470000000     0.512480000000     0.729470000000    -0.0407032  
C151     C      0.062820000000     0.510430000000     0.769830000000    -0.041862   
C152     C      0.009900000000     0.556490000000     0.773910000000    -0.0409257  
C153     C      0.950920000000     0.469260000000     0.270950000000    -0.0418287  
C154     C      0.962290000000     0.505880000000     0.333240000000    -0.0222831  
C155     C      0.985700000000     0.485730000000     0.212040000000     0.0176705  
C156     C      0.969460000000     0.499660000000     0.290670000000     0.0175091  
C157     C      0.995240000000     0.477630000000     0.170250000000    -0.022665   
C158     C      0.996320000000     0.522920000000     0.270830000000    -0.0411026  
C159     C      0.004220000000     0.516140000000     0.231760000000    -0.0416126  
C160     C      0.958810000000     0.462490000000     0.231880000000    -0.0420443  
C161     C      0.960600000000     0.733840000000     0.450390000000    -0.0424838  
C162     C      0.982410000000     0.663900000000     0.453690000000    -0.0226759  
C163     C      0.007060000000     0.786900000000     0.448490000000     0.0180712  
C164     C      0.991020000000     0.706800000000     0.451950000000     0.0182105  
C165     C      0.015470000000     0.829870000000     0.447790000000    -0.0223922  
C166     C      0.029520000000     0.720100000000     0.450130000000    -0.0408295  
C167     C      0.037480000000     0.759840000000     0.448900000000    -0.0423646  
C168     C      0.968550000000     0.773520000000     0.448340000000    -0.0407175  
C169     C      0.043200000000     0.258030000000     0.485000000000    -0.0434054  
C170     C      0.027780000000     0.329450000000     0.487950000000    -0.0233137  
C171     C      0.992520000000     0.208970000000     0.484450000000     0.0180028  
C172     C      0.015250000000     0.287480000000     0.488290000000     0.0183605  
C173     C      0.980150000000     0.167070000000     0.481440000000    -0.0227127  
C174     C      0.975740000000     0.277370000000     0.488170000000    -0.0397098  
C175     C      0.964510000000     0.238450000000     0.486800000000    -0.0430686  
C176     C      0.031950000000     0.219170000000     0.482810000000    -0.0401169  
C177     C      0.736370000000     0.023110000000     0.545180000000    -0.0430798  
C178     C      0.665670000000     0.022340000000     0.526050000000    -0.023023   
C179     C      0.787590000000     0.028390000000     0.497170000000     0.0179918  
C180     C      0.708190000000     0.023710000000     0.515890000000     0.0184196  
C181     C      0.830060000000     0.031370000000     0.487200000000    -0.0225486  
C182     C      0.720020000000     0.028000000000     0.477260000000    -0.0403594  
C183     C      0.759390000000     0.029870000000     0.467940000000    -0.0426502  
C184     C      0.775720000000     0.025690000000     0.535920000000    -0.0404411  
C185     C      0.276760000000     0.966960000000     0.458640000000    -0.0405269  
C186     C      0.330150000000     0.017130000000     0.461880000000    -0.0226983  
C187     C      0.208780000000     0.985320000000     0.461330000000     0.018084   
C188     C      0.287820000000     0.006070000000     0.461790000000     0.0183123  
C189     C      0.166480000000     0.974150000000     0.461130000000    -0.0228544  
C190     C      0.259010000000     0.034820000000     0.463210000000    -0.0429551  
C191     C      0.219820000000     0.024550000000     0.462670000000    -0.0401673  
C192     C      0.237580000000     0.956650000000     0.458840000000    -0.0428516  
C193     C      0.976350000000     0.729170000000     0.049110000000    -0.0407359  
C194     C      0.946650000000     0.669600000000     0.018520000000    -0.0228033  
C195     C      0.958720000000     0.794200000000     0.028120000000     0.0181027  
C196     C      0.952370000000     0.712980000000     0.020550000000     0.0180221  
C197     C      0.959340000000     0.837590000000     0.034200000000    -0.023053   
C198     C      0.932960000000     0.737700000000     0.994700000000    -0.042224   
C199     C      0.936020000000     0.777990000000     0.998540000000    -0.0411061  
C200     C      0.979460000000     0.769460000000     0.052920000000    -0.0422052  
C201     C      0.006730000000     0.270930000000     0.046100000000    -0.0414385  
C202     C      0.032390000000     0.337750000000     0.029800000000    -0.022198   
C203     C      0.037270000000     0.212670000000     0.020630000000     0.0183344  
C204     C      0.032470000000     0.294230000000     0.024850000000     0.017446   
C205     C      0.042420000000     0.169170000000     0.021480000000    -0.0230475  
C206     C      0.059270000000     0.276450000000     0.999940000000    -0.0412052  
C207     C      0.061710000000     0.235980000000     0.997910000000    -0.042303   
C208     C      0.009200000000     0.230470000000     0.044110000000    -0.0412865  
C209     C      0.772700000000     0.010840000000     0.935960000000    -0.0405207  
C210     C      0.830950000000     0.044390000000     0.965200000000    -0.0225626  
C211     C      0.706920000000     0.027110000000     0.955670000000     0.018628   
C212     C      0.787780000000     0.037290000000     0.962920000000     0.0178985  
C213     C      0.663650000000     0.024590000000     0.949280000000    -0.0234009  
C214     C      0.762190000000     0.057230000000     0.987490000000    -0.0418104  
C215     C      0.722070000000     0.052280000000     0.983800000000    -0.0410382  
C216     C      0.732580000000     0.005870000000     0.932280000000    -0.0421802  
C217     C      0.262910000000     0.932930000000     0.008880000000    -0.0423671  
C218     C      0.330920000000     0.946180000000     0.984560000000    -0.023048   
C219     C      0.206680000000     0.962370000000     0.978120000000     0.0178276  
C220     C      0.287840000000     0.954150000000     0.984690000000     0.017823   
C221     C      0.163410000000     0.963000000000     0.971140000000    -0.0230154  
C222     C      0.271920000000     0.981170000000     0.958780000000    -0.0406364  
C223     C      0.231650000000     0.985200000000     0.955470000000    -0.0422844  
C224     C      0.222660000000     0.936950000000     0.005560000000    -0.0411741  
C225     C      0.055440000000     0.988530000000     0.729940000000    -0.0414844  
C226     C      0.024450000000     0.007870000000     0.666460000000    -0.0228405  
C227     C      0.016650000000     0.977510000000     0.787610000000     0.0189219  
C228     C      0.021760000000     0.996460000000     0.708500000000     0.0187866  
C229     C      0.013720000000     0.967380000000     0.829940000000    -0.0231047  
C230     C      0.985520000000     0.995000000000     0.727000000000    -0.0413573  
C231     C      0.982950000000     0.985080000000     0.766070000000    -0.0414846  
C232     C      0.052920000000     0.979240000000     0.769190000000    -0.0409239  
C233     C      0.963450000000     0.051940000000     0.259560000000    -0.0427966  
C234     C      0.962670000000     0.031760000000     0.329930000000    -0.0224484  
C235     C      0.958270000000     0.004360000000     0.207880000000     0.0183763  
C236     C      0.961290000000     0.022310000000     0.287330000000     0.0177336  
C237     C      0.955990000000     0.994800000000     0.165360000000    -0.0232281  
C238     C      0.956540000000     0.983750000000     0.275040000000    -0.0403675  
C239     C      0.955400000000     0.974810000000     0.235670000000    -0.0428097  
C240     C      0.961690000000     0.043060000000     0.220180000000    -0.0410263  
H1       H      0.468620000000     0.503370000000     0.840000000000     0.104131   
H2       H      0.513450000000     0.550560000000     0.670080000000     0.0463837  
H3       H      0.552000000000     0.516540000000     0.660870000000     0.0502789  
H4       H      0.521090000000     0.542190000000     0.805060000000     0.0453728  
H5       H      0.520750000000     0.563940000000     0.737690000000     0.0414274  
H6       H      0.514850000000     0.435630000000     0.834410000000     0.0469124  
H7       H      0.525730000000     0.444780000000     0.699650000000     0.0463466  
H8       H      0.524190000000     0.422980000000     0.766970000000     0.0420768  
H9       H      0.549170000000     0.473460000000     0.845390000000     0.0500684  
H10      H      0.473390000000     0.480110000000     0.661710000000     0.10458    
H11      H      0.473520000000     0.473600000000     0.160790000000     0.103264   
H12      H      0.476730000000     0.540900000000     0.342400000000     0.0500597  
H13      H      0.453930000000     0.494860000000     0.333880000000     0.0451143  
H14      H      0.506920000000     0.575660000000     0.215630000000     0.0423869  
H15      H      0.490620000000     0.574490000000     0.284500000000     0.0416737  
H16      H      0.524040000000     0.543990000000     0.156990000000     0.0508991  
H17      H      0.498860000000     0.449510000000     0.284350000000     0.0424629  
H18      H      0.516850000000     0.450830000000     0.215840000000     0.0426623  
H19      H      0.550490000000     0.499240000000     0.163420000000     0.0461836  
H20      H      0.532360000000     0.474320000000     0.342870000000     0.103563   
H21      H      0.477350000000     0.832870000000     0.506390000000     0.104026   
H22      H      0.448500000000     0.656930000000     0.470160000000     0.0466163  
H23      H      0.487620000000     0.648280000000     0.436820000000     0.0493704  
H24      H      0.446900000000     0.791590000000     0.453080000000     0.0440773  
H25      H      0.430770000000     0.722530000000     0.457100000000     0.0408601  
H26      H      0.549890000000     0.830700000000     0.463950000000     0.048153   
H27      H      0.552400000000     0.694850000000     0.467930000000     0.0451483  
H28      H      0.568360000000     0.764050000000     0.465700000000     0.0418611  
H29      H      0.511190000000     0.836560000000     0.429370000000     0.048052   
H30      H      0.516250000000     0.656150000000     0.517240000000     0.103446   
H31      H      0.510930000000     0.154370000000     0.521530000000     0.104106   
H32      H      0.557660000000     0.327330000000     0.483980000000     0.0464977  
H33      H      0.523730000000     0.337710000000     0.445780000000     0.0504842  
H34      H      0.550690000000     0.192170000000     0.471360000000     0.0455403  
H35      H      0.571720000000     0.259940000000     0.474810000000     0.0414147  
H36      H      0.444400000000     0.161410000000     0.474220000000     0.0459881  
H37      H      0.452280000000     0.297150000000     0.469570000000     0.045628   
H38      H      0.431180000000     0.229340000000     0.467920000000     0.0412656  
H39      H      0.483010000000     0.152370000000     0.440300000000     0.0503198  
H40      H      0.486510000000     0.333700000000     0.523480000000     0.104036   
H41      H      0.530980000000     0.827220000000     0.990350000000     0.10477    
H42      H      0.426620000000     0.655280000000     0.987780000000     0.0449151  
H43      H      0.452970000000     0.644670000000     0.944460000000     0.0513716  
H44      H      0.440400000000     0.789970000000     0.000840000000     0.0456687  
H45      H      0.426670000000     0.721080000000     0.012760000000     0.0420954  
H46      H      0.502570000000     0.824720000000     0.917260000000     0.0430033  
H47      H      0.509170000000     0.689250000000     0.924560000000     0.0446116  
H48      H      0.523000000000     0.758100000000     0.912730000000     0.0415335  
H49      H      0.457880000000     0.834340000000     0.942540000000     0.0522117  
H50      H      0.502220000000     0.652550000000     0.015620000000     0.104851   
H51      H      0.509610000000     0.151620000000     0.985290000000     0.104773   
H52      H      0.430590000000     0.329790000000     0.021940000000     0.0470172  
H53      H      0.465560000000     0.331870000000     0.060070000000     0.0488     
H54      H      0.424520000000     0.198540000000     0.987690000000     0.0438772  
H55      H      0.420770000000     0.269660000000     0.985490000000     0.0425535  
H56      H      0.482210000000     0.144940000000     0.063020000000     0.0465121  
H57      H      0.513150000000     0.277170000000     0.069230000000     0.0432797  
H58      H      0.516970000000     0.206060000000     0.071380000000     0.0421151  
H59      H      0.439520000000     0.143050000000     0.032850000000     0.0495122  
H60      H      0.505650000000     0.326890000000     0.985250000000     0.104495   
H61      H      0.495640000000     0.023700000000     0.831340000000     0.104715   
H62      H      0.487820000000     0.927430000000     0.657100000000     0.0452367  
H63      H      0.443850000000     0.953750000000     0.648610000000     0.0517384  
H64      H      0.503200000000     0.935240000000     0.791450000000     0.0455927  
H65      H      0.513590000000     0.924200000000     0.722120000000     0.0421763  
H66      H      0.421260000000     0.997450000000     0.830500000000     0.0430883  
H67      H      0.424890000000     0.008390000000     0.695620000000     0.0453327  
H68      H      0.414610000000     0.019550000000     0.764930000000     0.0418616  
H69      H      0.445820000000     0.951840000000     0.837800000000     0.0520627  
H70      H      0.514760000000     0.003590000000     0.657130000000     0.105039   
H71      H      0.533840000000     0.957230000000     0.147130000000     0.10513    
H72      H      0.529910000000     0.945200000000     0.333170000000     0.0484882  
H73      H      0.562030000000     0.986040000000     0.330080000000     0.0456978  
H74      H      0.541880000000     0.038220000000     0.204810000000     0.0431347  
H75      H      0.560510000000     0.029110000000     0.272710000000     0.042271   
H76      H      0.457390000000     0.987810000000     0.159070000000     0.0472297  
H77      H      0.480520000000     0.933320000000     0.281760000000     0.0432019  
H78      H      0.461880000000     0.942410000000     0.213860000000     0.0427945  
H79      H      0.489450000000     0.029180000000     0.156240000000     0.0486835  
H80      H      0.486440000000     0.019180000000     0.333790000000     0.104468   
H81      H      0.840090000000     0.518100000000     0.494180000000     0.103871   
H82      H      0.657220000000     0.511230000000     0.571210000000     0.0486658  
H83      H      0.664560000000     0.549100000000     0.536200000000     0.0478132  
H84      H      0.774150000000     0.431810000000     0.548350000000     0.0418566  
H85      H      0.704630000000     0.446480000000     0.547230000000     0.0446951  
H86      H      0.846940000000     0.494020000000     0.574400000000     0.0490848  
H87      H      0.730460000000     0.568880000000     0.541720000000     0.041569   
H88      H      0.799940000000     0.554280000000     0.544530000000     0.0445065  
H89      H      0.840440000000     0.451160000000     0.545240000000     0.0484786  
H90      H      0.665000000000     0.477080000000     0.493890000000     0.103999   
H91      H      0.163090000000     0.519590000000     0.512330000000     0.103895   
H92      H      0.346050000000     0.504110000000     0.435180000000     0.0481025  
H93      H      0.339860000000     0.544020000000     0.468110000000     0.0474503  
H94      H      0.229700000000     0.426710000000     0.467390000000     0.0413498  
H95      H      0.299250000000     0.441030000000     0.466200000000     0.0443415  
H96      H      0.157650000000     0.484860000000     0.435610000000     0.0486397  
H97      H      0.274000000000     0.563580000000     0.461240000000     0.0411004  
H98      H      0.204460000000     0.549170000000     0.460530000000     0.0442477  
H99      H      0.163590000000     0.446660000000     0.470650000000     0.0477457  
H100     H      0.340940000000     0.474470000000     0.514490000000     0.104223   
H101     H      0.649680000000     0.513170000000     0.017630000000     0.105082   
H102     H      0.823910000000     0.544240000000     0.989140000000     0.0460308  
H103     H      0.827010000000     0.513140000000     0.030490000000     0.0499531  
H104     H      0.712470000000     0.438380000000     0.030060000000     0.0429341  
H105     H      0.780160000000     0.458620000000     0.039230000000     0.0439386  
H106     H      0.651210000000     0.467620000000     0.946290000000     0.0484271  
H107     H      0.769730000000     0.537460000000     0.942970000000     0.042643   
H108     H      0.702050000000     0.517230000000     0.933790000000     0.0432373  
H109     H      0.654940000000     0.435680000000     0.987630000000     0.0472645  
H110     H      0.838850000000     0.469700000000     0.957350000000     0.105266   
H111     H      0.153640000000     0.538180000000     0.005430000000     0.104463   
H112     H      0.333410000000     0.457010000000     0.055230000000     0.0513342  
H113     H      0.321720000000     0.429530000000     0.012880000000     0.043811   
H114     H      0.223000000000     0.533620000000     0.083580000000     0.0413018  
H115     H      0.291160000000     0.516660000000     0.071900000000     0.0449628  
H116     H      0.144140000000     0.469850000000     0.059950000000     0.0524441  
H117     H      0.255310000000     0.428900000000     0.990500000000     0.0417312  
H118     H      0.187120000000     0.445740000000     0.002300000000     0.0460643  
H119     H      0.155450000000     0.516760000000     0.080020000000     0.0422721  
H120     H      0.326110000000     0.503090000000     0.981560000000     0.104817   
H121     H      0.000210000000     0.485520000000     0.836950000000     0.105393   
H122     H      0.025130000000     0.570970000000     0.659370000000     0.0476208  
H123     H      0.065550000000     0.538460000000     0.656790000000     0.0497163  
H124     H      0.989920000000     0.573870000000     0.790760000000     0.0444474  
H125     H      0.987470000000     0.577380000000     0.719890000000     0.0433086  
H126     H      0.071420000000     0.525670000000     0.844480000000     0.0471082  
H127     H      0.081700000000     0.495380000000     0.712620000000     0.0442106  
H128     H      0.084140000000     0.491840000000     0.783470000000     0.0431294  
H129     H      0.035170000000     0.563420000000     0.846540000000     0.050865   
H130     H      0.993150000000     0.494270000000     0.666210000000     0.105352   
H131     H      0.948880000000     0.518280000000     0.155880000000     0.104191   
H132     H      0.964230000000     0.537390000000     0.339960000000     0.0487312  
H133     H      0.932520000000     0.496170000000     0.340990000000     0.0463108  
H134     H      0.944210000000     0.438860000000     0.217230000000     0.041958   
H135     H      0.930490000000     0.450650000000     0.285860000000     0.0422752  
H136     H      0.026480000000     0.483910000000     0.165040000000     0.0486261  
H137     H      0.011320000000     0.546180000000     0.285650000000     0.0431148  
H138     H      0.025090000000     0.534370000000     0.216990000000     0.0432233  
H139     H      0.989730000000     0.446580000000     0.163390000000     0.0460665  
H140     H      0.008730000000     0.464070000000     0.342960000000     0.104151   
H141     H      0.978870000000     0.833890000000     0.499210000000     0.104837   
H142     H      0.950830000000     0.658780000000     0.457900000000     0.0485286  
H143     H      0.990860000000     0.650730000000     0.425580000000     0.0475748  
H144     H      0.944640000000     0.793870000000     0.447170000000     0.0444554  
H145     H      0.930670000000     0.724290000000     0.450770000000     0.0417497  
H146     H      0.047190000000     0.835550000000     0.449560000000     0.048022   
H147     H      0.053440000000     0.699720000000     0.450130000000     0.0439922  
H148     H      0.067400000000     0.769400000000     0.448290000000     0.0414382  
H149     H      0.004570000000     0.841740000000     0.419950000000     0.0476973  
H150     H      0.021950000000     0.661230000000     0.503090000000     0.104      
H151     H      0.020480000000     0.154190000000     0.528470000000     0.103755   
H152     H      0.058720000000     0.332060000000     0.496670000000     0.0456227  
H153     H      0.025000000000     0.340220000000     0.457780000000     0.0516367  
H154     H      0.054050000000     0.197050000000     0.479740000000     0.0450714  
H155     H      0.073780000000     0.265140000000     0.483640000000     0.0410981  
H156     H      0.948880000000     0.163650000000     0.488590000000     0.0462447  
H157     H      0.953510000000     0.299570000000     0.489050000000     0.0459599  
H158     H      0.933890000000     0.231400000000     0.487030000000     0.0412427  
H159     H      0.984420000000     0.157880000000     0.450920000000     0.0495847  
H160     H      0.989410000000     0.340270000000     0.537010000000     0.103686   
H161     H      0.838280000000     0.977660000000     0.519930000000     0.10415    
H162     H      0.661570000000     0.013500000000     0.556700000000     0.0467118  
H163     H      0.653650000000     0.052080000000     0.522530000000     0.0508654  
H164     H      0.796960000000     0.025470000000     0.559000000000     0.0445176  
H165     H      0.727930000000     0.020870000000     0.575250000000     0.0416676  
H166     H      0.834490000000     0.031340000000     0.455350000000     0.0475689  
H167     H      0.698760000000     0.029750000000     0.454270000000     0.0454856  
H168     H      0.767790000000     0.032790000000     0.437920000000     0.0413143  
H169     H      0.841010000000     0.059400000000     0.498810000000     0.0483093  
H170     H      0.659880000000     0.974110000000     0.485510000000     0.103558   
H171     H      0.160160000000     0.007730000000     0.514330000000     0.103895   
H172     H      0.341940000000     0.011930000000     0.432410000000     0.0498939  
H173     H      0.333820000000     0.048460000000     0.468680000000     0.0465911  
H174     H      0.229790000000     0.926270000000     0.456890000000     0.0412398  
H175     H      0.298490000000     0.944370000000     0.456400000000     0.0451933  
H176     H      0.154270000000     0.982890000000     0.432670000000     0.0504011  
H177     H      0.266810000000     0.065230000000     0.464680000000     0.0413447  
H178     H      0.198080000000     0.047220000000     0.463570000000     0.045374   
H179     H      0.162790000000     0.942250000000     0.464280000000     0.0465152  
H180     H      0.337140000000     0.977800000000     0.510910000000     0.103819   
H181     H      0.003850000000     0.839760000000     0.989450000000     0.104412   
H182     H      0.943460000000     0.658120000000     0.048410000000     0.0503464  
H183     H      0.919400000000     0.662610000000     0.002780000000     0.0456104  
H184     H      0.997400000000     0.781320000000     0.075740000000     0.0421704  
H185     H      0.991910000000     0.710590000000     0.069050000000     0.0443316  
H186     H      0.929450000000     0.849120000000     0.030230000000     0.0499443  
H187     H      0.914680000000     0.725840000000     0.972150000000     0.042135   
H188     H      0.920050000000     0.796570000000     0.978930000000     0.0442428  
H189     H      0.969100000000     0.844660000000     0.064030000000     0.0463901  
H190     H      0.998770000000     0.666970000000     0.982900000000     0.104651   
H191     H      0.996800000000     0.166090000000     0.977940000000     0.10516    
H192     H      0.021130000000     0.345370000000     0.058970000000     0.0474353  
H193     H      0.062700000000     0.348740000000     0.028200000000     0.0471579  
H194     H      0.989860000000     0.213010000000     0.061610000000     0.0441432  
H195     H      0.985490000000     0.284060000000     0.065110000000     0.0426417  
H196     H      0.071810000000     0.161060000000     0.010950000000     0.0466474  
H197     H      0.079040000000     0.293910000000     0.982920000000     0.0430382  
H198     H      0.083340000000     0.222880000000     0.979330000000     0.042409   
H199     H      0.039360000000     0.158920000000     0.051840000000     0.050169   
H200     H      0.994830000000     0.340510000000     0.979020000000     0.105303   
H201     H      0.662900000000     0.978150000000     0.992080000000     0.104993   
H202     H      0.843520000000     0.042970000000     0.935600000000     0.0500289  
H203     H      0.836730000000     0.074030000000     0.976530000000     0.0464031  
H204     H      0.721550000000     0.986050000000     0.910610000000     0.0424866  
H205     H      0.791960000000     0.994700000000     0.917160000000     0.0437748  
H206     H      0.650770000000     0.053950000000     0.953190000000     0.0511805  
H207     H      0.773240000000     0.077300000000     0.008920000000     0.042671   
H208     H      0.702800000000     0.068700000000     0.002340000000     0.0445322  
H209     H      0.657330000000     0.014620000000     0.919360000000     0.0466696  
H210     H      0.833100000000     0.998180000000     0.008120000000     0.104627   
H211     H      0.159880000000     0.006030000000     0.017280000000     0.104806   
H212     H      0.337070000000     0.917360000000     0.997670000000     0.0437651  
H213     H      0.340930000000     0.944840000000     0.954000000000     0.050801   
H214     H      0.203930000000     0.919290000000     0.023520000000     0.0436438  
H215     H      0.274550000000     0.912210000000     0.029360000000     0.0415312  
H216     H      0.157190000000     0.972980000000     0.941190000000     0.0469761  
H217     H      0.290640000000     0.998070000000     0.940110000000     0.0444864  
H218     H      0.219980000000     0.005220000000     0.934320000000     0.0425701  
H219     H      0.151680000000     0.933110000000     0.974550000000     0.0493189  
H220     H      0.338550000000     0.992200000000     0.027030000000     0.104036   
H221     H      0.981930000000     0.021560000000     0.837650000000     0.104078   
H222     H      0.013120000000     0.037900000000     0.663230000000     0.0480601  
H223     H      0.055210000000     0.007900000000     0.656720000000     0.0500724  
H224     H      0.079310000000     0.973440000000     0.785160000000     0.0422827  
H225     H      0.083750000000     0.989770000000     0.716420000000     0.0422947  
H226     H      0.994100000000     0.941980000000     0.833130000000     0.0457574  
H227     H      0.959210000000     0.001430000000     0.711130000000     0.0440931  
H228     H      0.954670000000     0.983710000000     0.779660000000     0.0427786  
H229     H      0.042700000000     0.959430000000     0.841720000000     0.0507171  
H230     H      0.984360000000     0.960230000000     0.654400000000     0.104361   
H231     H      0.011290000000     0.025220000000     0.158890000000     0.103762   
H232     H      0.969630000000     0.062920000000     0.334600000000     0.0453467  
H233     H      0.933470000000     0.026090000000     0.342380000000     0.049289   
H234     H      0.963110000000     0.066390000000     0.199250000000     0.0439897  
H235     H      0.966380000000     0.081970000000     0.268320000000     0.0408164  
H236     H      0.954470000000     0.962890000000     0.160690000000     0.0480686  
H237     H      0.953980000000     0.960510000000     0.295980000000     0.0452871  
H238     H      0.952030000000     0.944820000000     0.226960000000     0.0415814  
H239     H      0.928940000000     0.007980000000     0.153750000000     0.0487918  
H240     H      0.012790000000     0.993330000000     0.333540000000     0.103718   
N1       N      0.490360000000     0.488070000000     0.854620000000    -0.20456    
N2       N      0.495120000000     0.496530000000     0.648340000000    -0.204946   
N3       N      0.492440000000     0.492290000000     0.146190000000    -0.204447   
N4       N      0.511070000000     0.491710000000     0.355690000000    -0.204756   
N5       N      0.495700000000     0.847570000000     0.487250000000    -0.204837   
N6       N      0.501270000000     0.640470000000     0.496070000000    -0.204682   
N7       N      0.496570000000     0.140550000000     0.498700000000    -0.204847   
N8       N      0.503370000000     0.348010000000     0.502750000000    -0.204619   
N9       N      0.509380000000     0.842170000000     0.975200000000    -0.203614   
N10      N      0.484310000000     0.636990000000     0.996750000000    -0.203651   
N11      N      0.492690000000     0.134670000000     0.003900000000    -0.203763   
N12      N      0.487790000000     0.342600000000     0.004050000000    -0.203706   
N13      N      0.480130000000     0.002230000000     0.846120000000    -0.203866   
N14      N      0.495840000000     0.985980000000     0.641260000000    -0.20401    
N15      N      0.512890000000     0.976310000000     0.136230000000    -0.203778   
N16      N      0.504860000000     0.999450000000     0.347680000000    -0.204334   
N17      N      0.855670000000     0.502100000000     0.514670000000    -0.204281   
N18      N      0.649190000000     0.494760000000     0.512780000000    -0.204558   
N19      N      0.147860000000     0.501410000000     0.493440000000    -0.204602   
N20      N      0.356020000000     0.491160000000     0.494180000000    -0.204747   
N21      N      0.636130000000     0.492570000000     0.999950000000    -0.204256   
N22      N      0.848700000000     0.489250000000     0.978320000000    -0.203771   
N23      N      0.138260000000     0.517650000000     0.021610000000    -0.203821   
N24      N      0.341320000000     0.486400000000     0.001780000000    -0.204077   
N25      N      0.014260000000     0.506310000000     0.853990000000    -0.203335   
N26      N      0.010500000000     0.512330000000     0.649100000000    -0.20374    
N27      N      0.971690000000     0.501840000000     0.144460000000    -0.20423    
N28      N      0.990660000000     0.484380000000     0.356450000000    -0.204285   
N29      N      0.995670000000     0.849810000000     0.479630000000    -0.204555   
N30      N      0.003820000000     0.644900000000     0.485100000000    -0.204469   
N31      N      0.003240000000     0.141920000000     0.506780000000    -0.204781   
N32      N      0.004290000000     0.353380000000     0.514110000000    -0.204423   
N33      N      0.852450000000     0.999620000000     0.504540000000    -0.204699   
N34      N      0.644550000000     0.995060000000     0.501220000000    -0.204531   
N35      N      0.145020000000     0.993940000000     0.491990000000    -0.204671   
N36      N      0.352000000000     0.994270000000     0.490250000000    -0.204789   
N37      N      0.985300000000     0.856650000000     0.006500000000    -0.203717   
N38      N      0.979290000000     0.650390000000     0.999190000000    -0.203618   
N39      N      0.013300000000     0.149730000000     0.997410000000    -0.203642   
N40      N      0.008790000000     0.357060000000     0.000230000000    -0.203622   
N41      N      0.645490000000     0.997600000000     0.976630000000    -0.203314   
N42      N      0.850020000000     0.015820000000     0.990180000000    -0.20364    
N43      N      0.143540000000     0.988790000000     0.998430000000    -0.203497   
N44      N      0.352690000000     0.975970000000     0.005710000000    -0.203524   
N45      N      0.997380000000     0.999810000000     0.852080000000    -0.203947   
N46      N      0.001900000000     0.981550000000     0.641820000000    -0.204091   
N47      N      0.989210000000     0.010650000000     0.144040000000    -0.204067   
N48      N      0.991820000000     0.008040000000     0.349800000000    -0.204884   
O1       O      0.996770000000     0.003330000000     0.998220000000    -0.36513    
O2       O      0.966270000000     0.988820000000     0.086350000000    -0.305873   
O3       O      0.088560000000     0.016050000000     0.022300000000    -0.303927   
O4       O      0.011720000000     0.910760000000     0.980020000000    -0.305538   
O5       O      0.019760000000     0.024770000000     0.087740000000    -0.305626   
O6       O      0.966040000000     0.917180000000     0.024810000000    -0.304849   
O7       O      0.083770000000     0.971900000000     0.975800000000    -0.304427   
O8       O      0.979660000000     0.027830000000     0.908570000000    -0.305999   
O9       O      0.029400000000     0.089850000000     0.020320000000    -0.304071   
O10      O      0.015890000000     0.974540000000     0.910050000000    -0.305372   
O11      O      0.984210000000     0.095170000000     0.974890000000    -0.304478   
O12      O      0.910650000000     0.034890000000     0.971900000000    -0.304118   
O13      O      0.904030000000     0.988380000000     0.015780000000    -0.305757   
O14      O      0.998610000000     0.995620000000     0.495870000000    -0.367822   
O15      O      0.970430000000     0.025020000000     0.409750000000    -0.306671   
O16      O      0.086600000000     0.975110000000     0.467980000000    -0.30667    
O17      O      0.023580000000     0.082400000000     0.525830000000    -0.30666    
O18      O      0.018530000000     0.982680000000     0.403910000000    -0.308486   
O19      O      0.978650000000     0.086900000000     0.480060000000    -0.307386   
O20      O      0.088700000000     0.013960000000     0.519200000000    -0.306417   
O21      O      0.978980000000     0.963430000000     0.583150000000    -0.305601   
O22      O      0.018710000000     0.909160000000     0.462080000000    -0.305856   
O23      O      0.022840000000     0.010440000000     0.586480000000    -0.305402   
O24      O      0.976140000000     0.904500000000     0.510050000000    -0.306606   
O25      O      0.909900000000     0.971410000000     0.519520000000    -0.305991   
O26      O      0.909440000000     0.023350000000     0.481490000000    -0.307523   
O27      O      0.993480000000     0.503670000000     0.999140000000    -0.364801   
O28      O      0.955690000000     0.523360000000     0.084540000000    -0.306121   
O29      O      0.021410000000     0.416780000000     0.025300000000    -0.306429   
O30      O      0.910630000000     0.471990000000     0.964160000000    -0.303587   
O31      O      0.004560000000     0.481970000000     0.090950000000    -0.306914   
O32      O      0.900140000000     0.517350000000     0.008570000000    -0.305579   
O33      O      0.983670000000     0.411840000000     0.973530000000    -0.302856   
O34      O      0.026410000000     0.529860000000     0.914290000000    -0.304048   
O35      O      0.079920000000     0.490030000000     0.035570000000    -0.307499   
O36      O      0.986030000000     0.480110000000     0.907240000000    -0.302854   
O37      O      0.083400000000     0.534710000000     0.989510000000    -0.304773   
O38      O      0.011110000000     0.595820000000     0.980440000000    -0.30411    
O39      O      0.959170000000     0.590350000000     0.018000000000    -0.305246   
O40      O      0.001600000000     0.499470000000     0.502650000000    -0.366653   
O41      O      0.981870000000     0.411900000000     0.534120000000    -0.305344   
O42      O      0.018560000000     0.468870000000     0.413720000000    -0.307373   
O43      O      0.911040000000     0.520650000000     0.484770000000    -0.307053   
O44      O      0.024250000000     0.409440000000     0.485790000000    -0.306912   
O45      O      0.914590000000     0.479690000000     0.534280000000    -0.304863   
O46      O      0.971210000000     0.512360000000     0.412870000000    -0.30586    
O47      O      0.024950000000     0.590580000000     0.515340000000    -0.306442   
O48      O      0.089390000000     0.477040000000     0.475110000000    -0.306568   
O49      O      0.978970000000     0.585530000000     0.470610000000    -0.306432   
O50      O      0.091760000000     0.523930000000     0.519100000000    -0.306542   
O51      O      0.028680000000     0.530940000000     0.588570000000    -0.304639   
O52      O      0.985640000000     0.483620000000     0.595530000000    -0.304736   
O53      O      0.499140000000     0.988300000000     0.990940000000    -0.364868   
O54      O      0.409640000000     0.959340000000     0.976770000000    -0.306964   
O55      O      0.483400000000     0.002120000000     0.083210000000    -0.304377   
O56      O      0.529420000000     0.898270000000     0.003360000000    -0.303293   
O57      O      0.409960000000     0.003650000000     0.023270000000    -0.304286   
O58      O      0.481230000000     0.900170000000     0.960860000000    -0.307266   
O59      O      0.531460000000     0.959830000000     0.075550000000    -0.303959   
O60      O      0.584510000000     0.017680000000     0.960990000000    -0.303921   
O61      O      0.474130000000     0.074180000000     0.022930000000    -0.304847   
O62      O      0.592080000000     0.969870000000     0.003380000000    -0.302844   
O63      O      0.515220000000     0.080670000000     0.973880000000    -0.304709   
O64      O      0.510630000000     0.019890000000     0.901580000000    -0.304698   
O65      O      0.466350000000     0.973220000000     0.903590000000    -0.307767   
O66      O      0.498430000000     0.993940000000     0.494450000000    -0.36752    
O67      O      0.408540000000     0.971970000000     0.515020000000    -0.307398   
O68      O      0.476580000000     0.083470000000     0.472420000000    -0.306894   
O69      O      0.518300000000     0.013370000000     0.585950000000    -0.30529    
O70      O      0.410210000000     0.016330000000     0.468460000000    -0.306545   
O71      O      0.474280000000     0.966630000000     0.582170000000    -0.306362   
O72      O      0.517360000000     0.082860000000     0.522100000000    -0.307199   
O73      O      0.588650000000     0.971250000000     0.476280000000    -0.306716   
O74      O      0.479340000000     0.018850000000     0.404740000000    -0.307803   
O75      O      0.585800000000     0.017850000000     0.520620000000    -0.305874   
O76      O      0.526300000000     0.974840000000     0.405030000000    -0.304899   
O77      O      0.520740000000     0.905550000000     0.468150000000    -0.306315   
O78      O      0.474290000000     0.904130000000     0.512620000000    -0.307651   
O79      O      0.488870000000     0.489840000000     0.000300000000    -0.366323   
O80      O      0.397830000000     0.509920000000     0.977600000000    -0.305643   
O81      O      0.466890000000     0.401330000000     0.025520000000    -0.306979   
O82      O      0.513260000000     0.466420000000     0.912380000000    -0.305573   
O83      O      0.399870000000     0.466480000000     0.024810000000    -0.307268   
O84      O      0.464960000000     0.509160000000     0.911150000000    -0.306601   
O85      O      0.511680000000     0.398990000000     0.979480000000    -0.304234   
O86      O      0.578210000000     0.515670000000     0.020400000000    -0.306263   
O87      O      0.467590000000     0.469730000000     0.090040000000    -0.308812   
O88      O      0.579130000000     0.466360000000     0.979130000000    -0.304641   
O89      O      0.513630000000     0.514770000000     0.088070000000    -0.305883   
O90      O      0.509610000000     0.580950000000     0.020250000000    -0.304736   
O91      O      0.463200000000     0.577970000000     0.975840000000    -0.304928   
O92      O      0.502760000000     0.494220000000     0.502090000000    -0.368254   
O93      O      0.412370000000     0.470730000000     0.521030000000    -0.306406   
O94      O      0.480730000000     0.581630000000     0.474720000000    -0.307991   
O95      O      0.520400000000     0.519000000000     0.591900000000    -0.306853   
O96      O      0.414320000000     0.514250000000     0.473790000000    -0.307735   
O97      O      0.475050000000     0.473340000000     0.590530000000    -0.306697   
O98      O      0.522310000000     0.584650000000     0.523710000000    -0.306715   
O99      O      0.593860000000     0.472180000000     0.485590000000    -0.306613   
O100     O      0.483510000000     0.513280000000     0.411340000000    -0.309059   
O101     O      0.590090000000     0.518290000000     0.530250000000    -0.30641    
O102     O      0.532650000000     0.471920000000     0.414330000000    -0.307487   
O103     O      0.526660000000     0.405540000000     0.480460000000    -0.306097   
O104     O      0.480630000000     0.405250000000     0.525470000000    -0.306326   
Zn1      Zn     0.959270000000     0.975180000000     0.030220000000     0.451208   
Zn2      Zn     0.032830000000     0.032330000000     0.031290000000     0.45048    
Zn3      Zn     0.026080000000     0.966110000000     0.966860000000     0.450409   
Zn4      Zn     0.968700000000     0.039540000000     0.964580000000     0.45141    
Zn5      Zn     0.965300000000     0.031580000000     0.467500000000     0.453256   
Zn6      Zn     0.029770000000     0.966540000000     0.458600000000     0.453674   
Zn7      Zn     0.032400000000     0.024770000000     0.530910000000     0.453266   
Zn8      Zn     0.966880000000     0.959690000000     0.526230000000     0.454194   
Zn9      Zn     0.953360000000     0.532830000000     0.026850000000     0.451263   
Zn10     Zn     0.023860000000     0.474020000000     0.036610000000     0.452201   
Zn11     Zn     0.969180000000     0.467790000000     0.962030000000     0.449613   
Zn12     Zn     0.027690000000     0.540030000000     0.971700000000     0.450011   
Zn13     Zn     0.971830000000     0.469330000000     0.540530000000     0.451685   
Zn14     Zn     0.032570000000     0.464890000000     0.470180000000     0.453551   
Zn15     Zn     0.966630000000     0.528530000000     0.468720000000     0.452666   
Zn16     Zn     0.035580000000     0.535200000000     0.530830000000     0.452635   
Zn17     Zn     0.465160000000     0.956200000000     0.959100000000     0.452669   
Zn18     Zn     0.467310000000     0.016300000000     0.028860000000     0.449277   
Zn19     Zn     0.536960000000     0.954930000000     0.017600000000     0.449847   
Zn20     Zn     0.526590000000     0.025460000000     0.957650000000     0.450681   
Zn21     Zn     0.464840000000     0.960280000000     0.525220000000     0.454545   
Zn22     Zn     0.467050000000     0.027070000000     0.460940000000     0.453921   
Zn23     Zn     0.528850000000     0.026170000000     0.529870000000     0.453478   
Zn24     Zn     0.532660000000     0.962350000000     0.461890000000     0.451526   
Zn25     Zn     0.454540000000     0.520720000000     0.967220000000     0.452173   
Zn26     Zn     0.456770000000     0.458000000000     0.034230000000     0.454505   
Zn27     Zn     0.522300000000     0.456040000000     0.968930000000     0.450035   
Zn28     Zn     0.521530000000     0.524530000000     0.031220000000     0.452558   
Zn29     Zn     0.468710000000     0.461860000000     0.533910000000     0.454437   
Zn30     Zn     0.471150000000     0.524850000000     0.466690000000     0.455335   
Zn31     Zn     0.532870000000     0.528310000000     0.535920000000     0.453301   
Zn32     Zn     0.538070000000     0.462050000000     0.471460000000     0.453782   


