data_structure

_audit_creation_method RASPA-1.0
_audit_creation_date 2023-5-23
_audit_author_name 'Poobodin Mano'

_cell_length_a    45.1896
_cell_length_b    44.8058
_cell_length_c    29.7004
_cell_angle_alpha 90
_cell_angle_beta  90
_cell_angle_gamma 90
_cell_volume      60136.1

_symmetry_cell_setting          triclinic
_symmetry_space_group_name_Hall 'P 1'
_symmetry_space_group_name_H-M  'P 1'
_symmetry_Int_Tables_number     1

_symmetry_equiv_pos_as_xyz 'x,y,z'

loop_
_atom_site_label
_atom_site_type_symbol
_atom_site_fract_x
_atom_site_fract_y
_atom_site_fract_z
_atom_site_charge
C1       C      0.081890000000     0.086070000000     0.253760000000     0.375813   
C2       C      0.050770000000     0.985830000000     0.330030000000     0.374282   
C3       C      0.005170000000     0.081650000000     0.390250000000     0.376838   
C4       C      0.938710000000     0.008460000000     0.293330000000     0.379382   
C5       C      0.014360000000     0.010660000000     0.165740000000     0.375703   
C6       C      0.970510000000     0.113040000000     0.231220000000     0.375864   
C7       C      0.027490000000     0.975410000000     0.837290000000     0.376434   
C8       C      0.090020000000     0.039750000000     0.732350000000     0.377896   
C9       C      0.102340000000     0.924990000000     0.717090000000     0.376575   
C10      C      0.046760000000     0.978280000000     0.590690000000     0.373958   
C11      C      0.977460000000     0.031260000000     0.697490000000     0.374972   
C12      C      0.986420000000     0.912940000000     0.712010000000     0.375521   
C13      C      0.367380000000     0.225320000000     0.181320000000     0.377062   
C14      C      0.254550000000     0.212940000000     0.233290000000     0.375749   
C15      C      0.332550000000     0.265850000000     0.335070000000     0.37076    
C16      C      0.244880000000     0.327730000000     0.253640000000     0.375735   
C17      C      0.289130000000     0.284450000000     0.100510000000     0.377984   
C18      C      0.355370000000     0.342460000000     0.213930000000     0.377855   
C19      C      0.213810000000     0.209380000000     0.710390000000     0.377399   
C20      C      0.269580000000     0.299280000000     0.779170000000     0.378106   
C21      C      0.318610000000     0.229240000000     0.651510000000     0.375998   
C22      C      0.295110000000     0.338090000000     0.617980000000     0.373989   
C23      C      0.183080000000     0.322590000000     0.674280000000     0.377046   
C24      C      0.222810000000     0.255970000000     0.551020000000     0.37739    
C25      C      0.189090000000     0.834180000000     0.425170000000     0.376384   
C26      C      0.227300000000     0.788230000000     0.568310000000     0.375867   
C27      C      0.203280000000     0.716820000000     0.431720000000     0.378927   
C28      C      0.313120000000     0.734780000000     0.490170000000     0.375247   
C29      C      0.301350000000     0.847680000000     0.452680000000     0.375359   
C30      C      0.271030000000     0.769160000000     0.333090000000     0.36516    
C31      C      0.237490000000     0.811270000000     0.077120000000     0.377217   
C32      C      0.215100000000     0.866590000000     0.933120000000     0.378022   
C33      C      0.327090000000     0.846390000000     0.980430000000     0.380313   
C34      C      0.287960000000     0.795580000000     0.842420000000     0.376908   
C35      C      0.197090000000     0.751040000000     0.929420000000     0.37281    
C36      C      0.301190000000     0.732190000000     0.993360000000     0.377064   
C37      C      0.508060000000     0.091620000000     0.037350000000     0.373741   
C38      C      0.503920000000     0.973920000000     0.005950000000     0.379494   
C39      C      0.530190000000     0.052420000000     0.878520000000     0.373595   
C40      C      0.609860000000     0.981510000000     0.937800000000     0.374972   
C41      C      0.583450000000     0.014510000000     0.108440000000     0.376816   
C42      C      0.618960000000     0.091020000000     0.987640000000     0.375046   
C43      C      0.475920000000     0.097820000000     0.529280000000     0.37723    
C44      C      0.518770000000     0.076510000000     0.371850000000     0.376523   
C45      C      0.591370000000     0.082790000000     0.515690000000     0.37682    
C46      C      0.568040000000     0.984560000000     0.415890000000     0.378625   
C47      C      0.459100000000     0.992500000000     0.472080000000     0.37622    
C48      C      0.543600000000     0.002640000000     0.585440000000     0.346524   
C49      C      0.801740000000     0.849710000000     0.336270000000     0.378858   
C50      C      0.700340000000     0.831990000000     0.422290000000     0.376146   
C51      C      0.718270000000     0.789900000000     0.261160000000     0.37694    
C52      C      0.712320000000     0.720180000000     0.411990000000     0.37629    
C53      C      0.802630000000     0.783320000000     0.473870000000     0.378976   
C54      C      0.809680000000     0.730400000000     0.318010000000     0.375815   
C55      C      0.831250000000     0.778000000000     0.821120000000     0.374644   
C56      C      0.724010000000     0.809000000000     0.847350000000     0.376606   
C57      C      0.754030000000     0.721430000000     0.727150000000     0.376544   
C58      C      0.690840000000     0.699090000000     0.862030000000     0.377293   
C59      C      0.772600000000     0.743660000000     0.972290000000     0.373903   
C60      C      0.804170000000     0.664700000000     0.860270000000     0.376813   
C61      C      0.695020000000     0.364580000000     0.151750000000     0.377879   
C62      C      0.747440000000     0.306430000000     0.277190000000     0.375025   
C63      C      0.699930000000     0.245090000000     0.144030000000     0.375579   
C64      C      0.816870000000     0.254770000000     0.163710000000     0.376023   
C65      C      0.808760000000     0.368800000000     0.151580000000     0.378133   
C66      C      0.756470000000     0.305380000000     0.028760000000     0.377066   
C67      C      0.833290000000     0.199460000000     0.650000000000     0.375331   
C68      C      0.734790000000     0.229750000000     0.560000000000     0.375314   
C69      C      0.746180000000     0.236920000000     0.737980000000     0.377103   
C70      C      0.735280000000     0.332220000000     0.640550000000     0.374763   
C71      C      0.825770000000     0.290960000000     0.535720000000     0.377206   
C72      C      0.838790000000     0.311300000000     0.704950000000     0.373923   
C73      C      0.482120000000     0.494590000000     0.143630000000     0.376225   
C74      C      0.481320000000     0.497810000000     0.965820000000     0.345927   
C75      C      0.429430000000     0.571420000000     0.032190000000     0.374934   
C76      C      0.536530000000     0.605570000000     0.986750000000     0.378058   
C77      C      0.576050000000     0.507040000000     0.046960000000     0.376389   
C78      C      0.520160000000     0.592730000000     0.151980000000     0.376467   
C79      C      0.454870000000     0.462870000000     0.533530000000     0.374601   
C80      C      0.465930000000     0.578610000000     0.521690000000     0.37521    
C81      C      0.513620000000     0.520170000000     0.658060000000     0.374783   
C82      C      0.581870000000     0.568200000000     0.536190000000     0.37574    
C83      C      0.525050000000     0.511400000000     0.409600000000     0.374745   
C84      C      0.570970000000     0.450960000000     0.543480000000     0.375513   
C85      C      0.985890000000     0.500760000000     0.423110000000     0.374598   
C86      C      0.076740000000     0.471820000000     0.307950000000     0.373982   
C87      C      0.967370000000     0.479570000000     0.256720000000     0.377524   
C88      C      0.057290000000     0.561190000000     0.224750000000     0.348212   
C89      C      0.055830000000     0.574030000000     0.401480000000     0.37463    
C90      C      0.962510000000     0.588990000000     0.299790000000     0.375821   
C91      C      0.112020000000     0.481130000000     0.804590000000     0.379085   
C92      C      0.069560000000     0.575550000000     0.863450000000     0.373167   
C93      C      0.023360000000     0.526600000000     0.711850000000     0.376549   
C94      C      0.960800000000     0.535550000000     0.854590000000     0.375893   
C95      C      0.038350000000     0.476360000000     0.949010000000     0.376912   
C96      C      0.007210000000     0.429330000000     0.800720000000     0.37451    
C97      C      0.991250000000     0.558180000000     0.567690000000    -0.0404973  
C98      C      0.997620000000     0.556340000000     0.652530000000    -0.0213389  
C99      C      0.959590000000     0.522430000000     0.529050000000     0.0210829  
C100     C      0.982470000000     0.546630000000     0.609580000000     0.0171033  
C101     C      0.949890000000     0.507630000000     0.485790000000    -0.0246623  
C102     C      0.961440000000     0.523550000000     0.610880000000    -0.0385956  
C103     C      0.950190000000     0.511460000000     0.570990000000    -0.0441133  
C104     C      0.979780000000     0.546270000000     0.527770000000    -0.0396082  
C105     C      0.040790000000     0.495460000000     0.132500000000    -0.0197835  
C106     C      0.058390000000     0.539980000000     0.179670000000     0.0704495  
C107     C      0.063040000000     0.483940000000     0.059890000000     0.0308706  
C108     C      0.059560000000     0.520500000000     0.137390000000    -0.0245823  
C109     C      0.065740000000     0.463760000000     0.019470000000    -0.0258411  
C110     C      0.079800000000     0.527080000000     0.102470000000    -0.0199599  
C111     C      0.081350000000     0.509090000000     0.064140000000    -0.0520829  
C112     C      0.042640000000     0.477380000000     0.094220000000    -0.0515936  
C113     C      0.507350000000     0.547420000000     0.857710000000    -0.0197333  
C114     C      0.483120000000     0.512220000000     0.915270000000     0.0687767  
C115     C      0.498010000000     0.541790000000     0.777430000000     0.0253259  
C116     C      0.486780000000     0.524450000000     0.867420000000    -0.0228398  
C117     C      0.505820000000     0.548630000000     0.728960000000    -0.0255434  
C118     C      0.470390000000     0.512030000000     0.831500000000    -0.0221187  
C119     C      0.475680000000     0.520960000000     0.787220000000    -0.0507888  
C120     C      0.513120000000     0.555660000000     0.813100000000    -0.0522523  
C121     C      0.550040000000     0.589550000000     0.290640000000    -0.0443286  
C122     C      0.554870000000     0.609760000000     0.211520000000    -0.0240821  
C123     C      0.556220000000     0.536660000000     0.306630000000     0.0197853  
C124     C      0.556850000000     0.584600000000     0.245120000000     0.0251428  
C125     C      0.555580000000     0.511090000000     0.339670000000    -0.0242866  
C126     C      0.563980000000     0.555600000000     0.230810000000    -0.0404646  
C127     C      0.563640000000     0.531820000000     0.261280000000    -0.0418246  
C128     C      0.550030000000     0.565840000000     0.321220000000    -0.0372673  
C129     C      0.897560000000     0.387460000000     0.771550000000    -0.0413137  
C130     C      0.870410000000     0.356150000000     0.713740000000    -0.0232268  
C131     C      0.949270000000     0.378100000000     0.789420000000     0.0232252  
C132     C      0.898020000000     0.364470000000     0.739400000000     0.0177258  
C133     C      0.976390000000     0.384520000000     0.817300000000    -0.023433   
C134     C      0.924450000000     0.348790000000     0.731800000000    -0.0403037  
C135     C      0.949880000000     0.355560000000     0.756590000000    -0.0425579  
C136     C      0.923050000000     0.394330000000     0.796200000000    -0.0413663  
C137     C      0.627080000000     0.364190000000     0.582090000000    -0.0431288  
C138     C      0.585180000000     0.401580000000     0.575290000000    -0.0243463  
C139     C      0.664180000000     0.368810000000     0.641030000000     0.0215101  
C140     C      0.613840000000     0.391030000000     0.596000000000     0.0197436  
C141     C      0.688620000000     0.354970000000     0.668600000000    -0.0244134  
C142     C      0.626740000000     0.407300000000     0.631300000000    -0.0393094  
C143     C      0.651750000000     0.396330000000     0.653570000000    -0.0437226  
C144     C      0.652070000000     0.353180000000     0.604430000000    -0.0399292  
C145     C      0.722580000000     0.234280000000     0.887000000000    -0.0443778  
C146     C      0.746190000000     0.215350000000     0.815250000000    -0.0239146  
C147     C      0.734390000000     0.283340000000     0.916910000000     0.019975   
C148     C      0.741900000000     0.239030000000     0.850630000000     0.025104   
C149     C      0.731870000000     0.306310000000     0.953670000000    -0.0230829  
C150     C      0.757420000000     0.266110000000     0.847720000000    -0.0411516  
C151     C      0.753650000000     0.288110000000     0.880530000000    -0.0403246  
C152     C      0.719040000000     0.256180000000     0.920080000000    -0.0392095  
C153     C      0.820540000000     0.329860000000     0.400050000000    -0.0434562  
C154     C      0.839620000000     0.330010000000     0.480070000000    -0.0240551  
C155     C      0.767870000000     0.333090000000     0.383960000000     0.0216844  
C156     C      0.814870000000     0.332720000000     0.446340000000     0.0250405  
C157     C      0.742830000000     0.333160000000     0.350440000000    -0.0239326  
C158     C      0.785570000000     0.336300000000     0.461120000000    -0.039786   
C159     C      0.762260000000     0.336470000000     0.430200000000    -0.041751   
C160     C      0.797250000000     0.330310000000     0.369090000000    -0.0367437  
C161     C      0.886820000000     0.436820000000     0.126120000000    -0.0438374  
C162     C      0.851140000000     0.394080000000     0.114540000000    -0.0242048  
C163     C      0.930790000000     0.430880000000     0.172270000000     0.0165627  
C164     C      0.878920000000     0.407020000000     0.134390000000     0.0200356  
C165     C      0.957510000000     0.444300000000     0.194590000000    -0.0208255  
C166     C      0.897040000000     0.389290000000     0.161920000000    -0.0406505  
C167     C      0.922730000000     0.401180000000     0.180930000000    -0.041896   
C168     C      0.912560000000     0.448680000000     0.145020000000    -0.0399615  
C169     C      0.679510000000     0.444550000000     0.105120000000    -0.0387197  
C170     C      0.675580000000     0.413980000000     0.176030000000    -0.0242059  
C171     C      0.644620000000     0.484230000000     0.088360000000     0.0207049  
C172     C      0.665520000000     0.439410000000     0.146630000000     0.019919   
C173     C      0.630850000000     0.505530000000     0.055300000000    -0.0237605  
C174     C      0.641660000000     0.457580000000     0.159510000000    -0.0432739  
C175     C      0.631340000000     0.479870000000     0.130610000000    -0.0381964  
C176     C      0.668980000000     0.466600000000     0.076010000000    -0.0435614  
C177     C      0.883010000000     0.573450000000     0.925860000000    -0.0416188  
C178     C      0.910370000000     0.531700000000     0.886970000000    -0.0221705  
C179     C      0.836020000000     0.591920000000     0.897460000000     0.0176602  
C180     C      0.883590000000     0.551460000000     0.892180000000     0.0173503  
C181     C      0.812390000000     0.615650000000     0.896870000000    -0.022054   
C182     C      0.859990000000     0.549560000000     0.861570000000    -0.0417629  
C183     C      0.836390000000     0.569670000000     0.864170000000    -0.0419374  
C184     C      0.859480000000     0.593630000000     0.928330000000    -0.041324   
C185     C      0.603570000000     0.649780000000     0.846470000000    -0.0429698  
C186     C      0.639260000000     0.692500000000     0.836250000000    -0.023054   
C187     C      0.560450000000     0.654520000000     0.894720000000     0.0172217  
C188     C      0.611060000000     0.679670000000     0.854880000000     0.018679   
C189     C      0.536060000000     0.639940000000     0.921170000000    -0.0214556  
C190     C      0.592830000000     0.697030000000     0.882740000000    -0.041388   
C191     C      0.567720000000     0.684530000000     0.902600000000    -0.0420283  
C192     C      0.578490000000     0.637250000000     0.866420000000    -0.0398086  
C193     C      0.783430000000     0.703290000000     0.578170000000    -0.0420869  
C194     C      0.769070000000     0.693000000000     0.658890000000    -0.0239601  
C195     C      0.820390000000     0.740660000000     0.559500000000     0.0254703  
C196     C      0.786470000000     0.709990000000     0.624130000000     0.0240011  
C197     C      0.837930000000     0.757600000000     0.524890000000    -0.0216935  
C198     C      0.806480000000     0.732280000000     0.637490000000    -0.0387465  
C199     C      0.823110000000     0.747690000000     0.605380000000    -0.0416006  
C200     C      0.800260000000     0.718510000000     0.546110000000    -0.0391188  
C201     C      0.737350000000     0.781760000000     0.076770000000    -0.0371768  
C202     C      0.787320000000     0.772260000000     0.040790000000    -0.0237205  
C203     C      0.733310000000     0.801560000000     0.152770000000     0.0279137  
C204     C      0.768330000000     0.780430000000     0.080820000000     0.0187     
C205     C      0.715040000000     0.816730000000     0.188590000000    -0.0214004  
C206     C      0.781520000000     0.788900000000     0.121700000000    -0.0411119  
C207     C      0.764180000000     0.799380000000     0.157350000000    -0.0402211  
C208     C      0.719980000000     0.791920000000     0.112610000000    -0.0439696  
C209     C      0.900160000000     0.652130000000     0.234770000000    -0.0417673  
C210     C      0.949770000000     0.638540000000     0.268390000000    -0.0229833  
C211     C      0.873170000000     0.696260000000     0.258990000000     0.0175526  
C212     C      0.923150000000     0.658780000000     0.264990000000     0.0182766  
C213     C      0.845580000000     0.715250000000     0.258730000000    -0.0222448  
C214     C      0.921060000000     0.684470000000     0.291890000000    -0.041898   
C215     C      0.896290000000     0.703060000000     0.288880000000    -0.0401836  
C216     C      0.875260000000     0.670600000000     0.232020000000    -0.0424335  
C217     C      0.626460000000     0.657150000000     0.443390000000    -0.0431338  
C218     C      0.663030000000     0.698120000000     0.425590000000    -0.0233835  
C219     C      0.619430000000     0.638810000000     0.519760000000     0.0185315  
C220     C      0.648440000000     0.676940000000     0.458350000000     0.0179253  
C221     C      0.603890000000     0.618090000000     0.552200000000    -0.0236964  
C222     C      0.655290000000     0.678030000000     0.504500000000    -0.0405918  
C223     C      0.641040000000     0.658990000000     0.534910000000    -0.0440669  
C224     C      0.611940000000     0.638430000000     0.473840000000    -0.0393663  
C225     C      0.611280000000     0.897430000000     0.366080000000    -0.0436794  
C226     C      0.570260000000     0.934940000000     0.378300000000    -0.0239382  
C227     C      0.629380000000     0.866600000000     0.427480000000     0.021539   
C228     C      0.591960000000     0.912220000000     0.395690000000     0.0243485  
C229     C      0.647780000000     0.840680000000     0.443470000000    -0.0234963  
C230     C      0.592230000000     0.904730000000     0.441560000000    -0.039827   
C231     C      0.610840000000     0.882130000000     0.457380000000    -0.0418642  
C232     C      0.629820000000     0.874770000000     0.381870000000    -0.0384375  
C233     C      0.639680000000     0.189920000000     0.520880000000    -0.04496    
C234     C      0.683890000000     0.223650000000     0.529410000000    -0.0234545  
C235     C      0.635540000000     0.143100000000     0.561620000000     0.0191162  
C236     C      0.667220000000     0.195520000000     0.541080000000     0.0224896  
C237     C      0.619200000000     0.114350000000     0.569990000000    -0.0231445  
C238     C      0.678260000000     0.175130000000     0.572980000000    -0.0365922  
C239     C      0.662670000000     0.149000000000     0.582840000000    -0.0431202  
C240     C      0.623950000000     0.163990000000     0.531150000000    -0.0382657  
C241     C      0.521920000000     0.066310000000     0.680350000000    -0.0204696  
C242     C      0.541990000000     0.023340000000     0.631080000000     0.067806   
C243     C      0.534680000000     0.069630000000     0.760000000000     0.0257235  
C244     C      0.540510000000     0.041070000000     0.675260000000    -0.0235874  
C245     C      0.529070000000     0.081730000000     0.806890000000    -0.0266758  
C246     C      0.557350000000     0.031630000000     0.712750000000    -0.0219238  
C247     C      0.554660000000     0.045930000000     0.754300000000    -0.0502589  
C248     C      0.518830000000     0.080150000000     0.722450000000    -0.0530075  
C249     C      0.540870000000     0.044620000000     0.204900000000    -0.0403269  
C250     C      0.571380000000     0.998890000000     0.186670000000    -0.0215912  
C251     C      0.550240000000     0.074160000000     0.272120000000     0.0240277  
C252     C      0.564810000000     0.025860000000     0.215370000000     0.0256486  
C253     C      0.541410000000     0.099090000000     0.303450000000    -0.0217952  
C254     C      0.581560000000     0.031630000000     0.254270000000    -0.041417   
C255     C      0.574230000000     0.055470000000     0.282560000000    -0.0387306  
C256     C      0.533630000000     0.068540000000     0.233060000000    -0.0394649  
C257     C      0.660670000000     0.923170000000     0.829750000000    -0.0430196  
C258     C      0.619550000000     0.949030000000     0.872340000000    -0.0238142  
C259     C      0.667910000000     0.869570000000     0.835820000000     0.0175309  
C260     C      0.638030000000     0.921880000000     0.862090000000     0.0187596  
C261     C      0.683270000000     0.841410000000     0.820920000000    -0.0221303  
C262     C      0.631260000000     0.894440000000     0.882460000000    -0.0412641  
C263     C      0.646180000000     0.868490000000     0.869550000000    -0.041171   
C264     C      0.675580000000     0.897200000000     0.816840000000    -0.0416376  
C265     C      0.659800000000     0.147560000000     0.119630000000    -0.0432045  
C266     C      0.685660000000     0.191810000000     0.155530000000    -0.0245568  
C267     C      0.674410000000     0.129270000000     0.045740000000     0.0215753  
C268     C      0.681980000000     0.169500000000     0.117870000000     0.020174   
C269     C      0.669970000000     0.107880000000     0.007110000000    -0.0242185  
C270     C      0.700580000000     0.170890000000     0.080040000000    -0.038501   
C271     C      0.696760000000     0.151040000000     0.044200000000    -0.0442288  
C272     C      0.656140000000     0.127540000000     0.083920000000    -0.0383461  
C273     C      0.116300000000     0.663690000000     0.829760000000    -0.040923   
C274     C      0.075070000000     0.630880000000     0.859590000000    -0.0233451  
C275     C      0.149650000000     0.690180000000     0.880320000000     0.0180465  
C276     C      0.100270000000     0.652600000000     0.866630000000     0.018783   
C277     C      0.177990000000     0.707480000000     0.887590000000    -0.0237212  
C278     C      0.108770000000     0.660950000000     0.910380000000    -0.0423163  
C279     C      0.133450000000     0.679260000000     0.917190000000    -0.0411816  
C280     C      0.140740000000     0.682330000000     0.836540000000    -0.0422325  
C281     C      0.384850000000     0.639120000000     0.053940000000    -0.0382773  
C282     C      0.378550000000     0.583100000000     0.059370000000    -0.0246541  
C283     C      0.342450000000     0.672460000000     0.054580000000     0.0182037  
C284     C      0.366010000000     0.614270000000     0.057600000000     0.0215372  
C285     C      0.329480000000     0.703270000000     0.049860000000    -0.0222835  
C286     C      0.335330000000     0.618850000000     0.060740000000    -0.0446552  
C287     C      0.323660000000     0.647710000000     0.059250000000    -0.0403564  
C288     C      0.373140000000     0.667960000000     0.051950000000    -0.0413082  
C289     C      0.444040000000     0.885810000000     0.969370000000    -0.044041   
C290     C      0.482170000000     0.926420000000     0.978600000000    -0.0238804  
C291     C      0.391580000000     0.897140000000     0.963930000000     0.0185192  
C292     C      0.450510000000     0.916250000000     0.974690000000     0.0194141  
C293     C      0.360230000000     0.887000000000     0.956180000000    -0.0228177  
C294     C      0.427300000000     0.937120000000     0.973610000000    -0.0389714  
C295     C      0.398060000000     0.927620000000     0.968590000000    -0.0429057  
C296     C      0.414840000000     0.876360000000     0.963690000000    -0.0401147  
C297     C      0.289040000000     0.820220000000     0.690360000000    -0.0442015  
C298     C      0.305090000000     0.820030000000     0.771830000000    -0.0243545  
C299     C      0.236960000000     0.821550000000     0.670100000000     0.0222724  
C300     C      0.281600000000     0.822310000000     0.736120000000     0.0233054  
C301     C      0.213210000000     0.818800000000     0.634860000000    -0.0233876  
C302     C      0.251730000000     0.825360000000     0.748470000000    -0.0383093  
C303     C      0.229560000000     0.824800000000     0.715740000000    -0.0435534  
C304     C      0.266910000000     0.820090000000     0.657590000000    -0.0374611  
C305     C      0.206720000000     0.769240000000     0.189330000000    -0.0473596  
C306     C      0.201340000000     0.814750000000     0.140670000000    -0.0255044  
C307     C      0.225310000000     0.773320000000     0.265980000000    -0.00508274 
C308     C      0.204820000000     0.800400000000     0.186210000000     0.0269459  
C309     C      0.240790000000     0.758270000000     0.305480000000     0.106922   
C310     C      0.211830000000     0.817910000000     0.223980000000    -0.0515243  
C311     C      0.222070000000     0.804500000000     0.263540000000    -0.0163014  
C312     C      0.216910000000     0.755840000000     0.228810000000    -0.0239832  
C313     C      0.098750000000     0.664020000000     0.451930000000    -0.045644   
C314     C      0.061450000000     0.622960000000     0.439880000000    -0.0235243  
C315     C      0.139210000000     0.672330000000     0.399590000000     0.0190112  
C316     C      0.088640000000     0.640000000000     0.425750000000     0.0244533  
C317     C      0.166150000000     0.689780000000     0.385810000000    -0.0232212  
C318     C      0.103590000000     0.632880000000     0.385620000000    -0.0378582  
C319     C      0.128750000000     0.648820000000     0.372780000000    -0.0421979  
C320     C      0.123690000000     0.680180000000     0.438790000000    -0.0378159  
C321     C      0.423800000000     0.661300000000     0.484700000000    -0.0404578  
C322     C      0.449790000000     0.629400000000     0.542940000000    -0.0228506  
C323     C      0.386900000000     0.698240000000     0.506140000000     0.0191362  
C324     C      0.426950000000     0.652470000000     0.529830000000     0.017761   
C325     C      0.366810000000     0.723930000000     0.493780000000    -0.0234808  
C326     C      0.409940000000     0.666800000000     0.563020000000    -0.0421645  
C327     C      0.390240000000     0.689600000000     0.551320000000    -0.0413836  
C328     C      0.403790000000     0.683790000000     0.472920000000    -0.0421055  
C329     C      0.365750000000     0.955240000000     0.422300000000    -0.0420743  
C330     C      0.405630000000     0.987960000000     0.456070000000    -0.0224105  
C331     C      0.335260000000     0.923080000000     0.469160000000     0.0177985  
C332     C      0.381170000000     0.965230000000     0.460480000000     0.0184884  
C333     C      0.310910000000     0.900240000000     0.473440000000    -0.0222976  
C334     C      0.373280000000     0.954170000000     0.503070000000    -0.0414213  
C335     C      0.350650000000     0.933090000000     0.507350000000    -0.0417406  
C336     C      0.342900000000     0.934420000000     0.426640000000    -0.0410243  
C337     C      0.174040000000     0.428210000000     0.727440000000    -0.0432679  
C338     C      0.150880000000     0.477930000000     0.746020000000    -0.0218529  
C339     C      0.149860000000     0.393000000000     0.677120000000     0.0212526  
C340     C      0.149680000000     0.447560000000     0.724380000000     0.0285731  
C341     C      0.150820000000     0.364680000000     0.649720000000    -0.0234645  
C342     C      0.125240000000     0.439210000000     0.698030000000    -0.0388883  
C343     C      0.125300000000     0.412150000000     0.674650000000    -0.0409924  
C344     C      0.174230000000     0.401280000000     0.703710000000    -0.0364944  
C345     C      0.374750000000     0.400430000000     0.500700000000    -0.0427089  
C346     C      0.406540000000     0.446950000000     0.502430000000    -0.02346    
C347     C      0.329930000000     0.396540000000     0.545690000000     0.0173869  
C348     C      0.380090000000     0.429130000000     0.517910000000     0.0185645  
C349     C      0.303950000000     0.378430000000     0.562270000000    -0.0220861  
C350     C      0.360370000000     0.441230000000     0.549560000000    -0.0411657  
C351     C      0.335540000000     0.425020000000     0.563480000000    -0.0415068  
C352     C      0.349910000000     0.384230000000     0.514600000000    -0.0405215  
C353     C      0.382880000000     0.144960000000     0.635870000000    -0.0426079  
C354     C      0.343640000000     0.184250000000     0.622110000000    -0.0228652  
C355     C      0.431500000000     0.148530000000     0.601220000000     0.0167472  
C356     C      0.374660000000     0.172350000000     0.616560000000     0.0181835  
C357     C      0.460390000000     0.134070000000     0.588170000000    -0.0209289  
C358     C      0.395250000000     0.187950000000     0.590090000000    -0.0414948  
C359     C      0.423440000000     0.176130000000     0.582490000000    -0.0416953  
C360     C      0.411020000000     0.133050000000     0.628020000000    -0.0402238  
C361     C      0.317590000000     0.309530000000     0.924580000000    -0.0439724  
C362     C      0.305260000000     0.307880000000     0.841490000000    -0.0237744  
C363     C      0.295730000000     0.273980000000     0.976830000000     0.0181165  
C364     C      0.303720000000     0.295080000000     0.888390000000     0.0193608  
C365     C      0.290830000000     0.262870000000     0.024170000000    -0.0229183  
C366     C      0.287370000000     0.268920000000     0.896500000000    -0.0393155  
C367     C      0.283220000000     0.258610000000     0.940370000000    -0.043118   
C368     C      0.314000000000     0.298780000000     0.968410000000    -0.0397539  
C369     C      0.234210000000     0.237630000000     0.409330000000    -0.0512182  
C370     C      0.217710000000     0.221170000000     0.486330000000    -0.0272083  
C371     C      0.284670000000     0.254590000000     0.397060000000    -0.00722901 
C372     C      0.241670000000     0.228290000000     0.452960000000     0.0310108  
C373     C      0.305430000000     0.274770000000     0.370860000000     0.109768   
C374     C      0.271100000000     0.230720000000     0.467600000000    -0.0492086  
C375     C      0.292390000000     0.244020000000     0.440060000000    -0.0205851  
C376     C      0.255530000000     0.250710000000     0.381660000000    -0.017293   
C377     C      0.161470000000     0.374110000000     0.244270000000    -0.04101    
C378     C      0.217310000000     0.374310000000     0.239440000000    -0.0237899  
C379     C      0.133970000000     0.419390000000     0.261830000000     0.0174055  
C380     C      0.188330000000     0.389040000000     0.251740000000     0.0180773  
C381     C      0.105320000000     0.436800000000     0.260740000000    -0.0226292  
C382     C      0.187740000000     0.419010000000     0.265740000000    -0.0428721  
C383     C      0.160810000000     0.434070000000     0.270580000000    -0.0405117  
C384     C      0.134520000000     0.389130000000     0.249350000000    -0.0426256  
C385     C      0.397910000000     0.425830000000     0.248120000000    -0.0398739  
C386     C      0.360270000000     0.396840000000     0.203080000000    -0.0224089  
C387     C      0.429480000000     0.462990000000     0.212950000000     0.0225197  
C388     C      0.383660000000     0.420650000000     0.206810000000     0.0181572  
C389     C      0.455200000000     0.484300000000     0.215090000000    -0.0242135  
C390     C      0.391620000000     0.437690000000     0.169080000000    -0.0411767  
C391     C      0.414160000000     0.458890000000     0.172240000000    -0.0382525  
C392     C      0.420790000000     0.446700000000     0.251110000000    -0.0447969  
C393     C      0.463220000000     0.179720000000     0.150630000000    -0.0431248  
C394     C      0.420540000000     0.214250000000     0.169090000000    -0.0235649  
C395     C      0.472320000000     0.162730000000     0.074020000000     0.0180006  
C396     C      0.438800000000     0.196470000000     0.135940000000     0.018706   
C397     C      0.489800000000     0.143790000000     0.041380000000    -0.0229193  
C398     C      0.431830000000     0.196900000000     0.089820000000    -0.0404866  
C399     C      0.448290000000     0.179990000000     0.059170000000    -0.0423311  
C400     C      0.479960000000     0.163170000000     0.119880000000    -0.0405833  
C401     C      0.902430000000     0.092600000000     0.720940000000    -0.0409857  
C402     C      0.956860000000     0.080630000000     0.715640000000    -0.0231015  
C403     C      0.883390000000     0.140970000000     0.697540000000     0.0183247  
C404     C      0.930630000000     0.100170000000     0.704790000000     0.0177674  
C405     C      0.859700000000     0.164630000000     0.700200000000    -0.0232307  
C406     C      0.934670000000     0.127700000000     0.682960000000    -0.0422657  
C407     C      0.911230000000     0.147960000000     0.679440000000    -0.0407248  
C408     C      0.878970000000     0.112830000000     0.717320000000    -0.042784   
C409     C      0.894110000000     0.855460000000     0.712090000000    -0.0437894  
C410     C      0.936450000000     0.891420000000     0.697750000000    -0.0239689  
C411     C      0.878590000000     0.842700000000     0.788300000000     0.0180092  
C412     C      0.915660000000     0.875000000000     0.729150000000     0.0188812  
C413     C      0.858430000000     0.826010000000     0.820280000000    -0.023438   
C414     C      0.917590000000     0.879220000000     0.775990000000    -0.0397785  
C415     C      0.899390000000     0.863090000000     0.805240000000    -0.0429199  
C416     C      0.875470000000     0.839760000000     0.741370000000    -0.0398072  
C417     C      0.132860000000     0.859500000000     0.821930000000    -0.0420221  
C418     C      0.126160000000     0.878040000000     0.742760000000    -0.0200514  
C419     C      0.153550000000     0.890320000000     0.881400000000     0.0242505  
C420     C      0.135010000000     0.883300000000     0.791280000000     0.0249353  
C421     C      0.166860000000     0.893210000000     0.927630000000    -0.0236727  
C422     C      0.146490000000     0.910770000000     0.806380000000    -0.03377    
C423     C      0.155490000000     0.914230000000     0.851040000000    -0.0419345  
C424     C      0.142230000000     0.862890000000     0.866490000000    -0.0392247  
C425     C      0.136460000000     0.159620000000     0.747300000000    -0.0410954  
C426     C      0.183700000000     0.185340000000     0.769850000000    -0.0232463  
C427     C      0.124210000000     0.110070000000     0.774600000000     0.0173503  
C428     C      0.163140000000     0.158960000000     0.771450000000     0.0188675  
C429     C      0.103090000000     0.084190000000     0.776880000000    -0.0222434  
C430     C      0.170570000000     0.133400000000     0.796340000000    -0.0431565  
C431     C      0.151250000000     0.109080000000     0.797830000000    -0.0418797  
C432     C      0.117170000000     0.135290000000     0.748740000000    -0.0409538  
C433     C      0.074280000000     0.031430000000     0.461070000000    -0.0419088  
C434     C      0.076060000000     0.992670000000     0.523060000000    -0.0236715  
C435     C      0.050030000000     0.079320000000     0.472540000000     0.0215759  
C436     C      0.069040000000     0.023690000000     0.506200000000     0.0222764  
C437     C      0.032900000000     0.104820000000     0.451970000000    -0.0248289  
C438     C      0.056140000000     0.044890000000     0.535060000000    -0.0362317  
C439     C      0.046330000000     0.072280000000     0.518240000000    -0.0421423  
C440     C      0.064910000000     0.059040000000     0.444410000000    -0.0361825  
C441     C      0.988900000000     0.975590000000     0.971480000000    -0.0401381  
C442     C      0.011660000000     0.002310000000     0.905200000000    -0.0249691  
C443     C      0.997290000000     0.992570000000     0.048170000000     0.0207107  
C444     C      0.008080000000     0.997710000000     0.955100000000     0.0185982  
C445     C      0.989060000000     0.991800000000     0.097300000000    -0.0233355  
C446     C      0.021910000000     0.017160000000     0.985600000000    -0.0432023  
C447     C      0.016350000000     0.014800000000     0.031700000000    -0.040896   
C448     C      0.983580000000     0.973010000000     0.017650000000    -0.0445166  
C449     C      0.898050000000     0.222770000000     0.216360000000    -0.0405765  
C450     C      0.869640000000     0.243560000000     0.149930000000    -0.0228116  
C451     C      0.939070000000     0.188370000000     0.206040000000     0.0184944  
C452     C      0.893860000000     0.224320000000     0.169520000000     0.0177629  
C453     C      0.962140000000     0.167630000000     0.225270000000    -0.0225006  
C454     C      0.913020000000     0.208410000000     0.141080000000    -0.0425803  
C455     C      0.935530000000     0.190710000000     0.159190000000    -0.0415152  
C456     C      0.920240000000     0.204660000000     0.234490000000    -0.0418925  
C457     C      0.829590000000     0.932800000000     0.274330000000    -0.0406749  
C458     C      0.830680000000     0.876630000000     0.278700000000    -0.0218297  
C459     C      0.874680000000     0.961750000000     0.266010000000     0.0190783  
C460     C      0.846030000000     0.906220000000     0.273170000000     0.017644   
C461     C      0.890400000000     0.991310000000     0.263340000000    -0.0225721  
C462     C      0.876810000000     0.907560000000     0.267350000000    -0.0418541  
C463     C      0.891000000000     0.935120000000     0.263480000000    -0.040007   
C464     C      0.843820000000     0.960390000000     0.270970000000    -0.0432444  
C465     C      0.081030000000     0.900550000000     0.415600000000    -0.0414505  
C466     C      0.059480000000     0.950650000000     0.393250000000    -0.022516   
C467     C      0.133020000000     0.895560000000     0.435560000000     0.0188305  
C468     C      0.084690000000     0.931420000000     0.409610000000     0.0162916  
C469     C      0.158700000000     0.876570000000     0.450840000000    -0.0234769  
C470     C      0.112560000000     0.944270000000     0.417440000000    -0.0412135  
C471     C      0.136540000000     0.926490000000     0.430120000000    -0.0428643  
C472     C      0.104970000000     0.882790000000     0.428820000000    -0.0414309  
C473     C      0.206560000000     0.125470000000     0.246440000000    -0.0425525  
C474     C      0.233950000000     0.165750000000     0.203890000000    -0.0237337  
C475     C      0.159080000000     0.106630000000     0.220370000000     0.017285   
C476     C      0.207230000000     0.146110000000     0.210870000000     0.018682   
C477     C      0.133300000000     0.085490000000     0.225090000000    -0.0222102  
C478     C      0.183330000000     0.147290000000     0.180690000000    -0.0421057  
C479     C      0.159440000000     0.127720000000     0.185440000000    -0.0412967  
C480     C      0.182580000000     0.105990000000     0.251320000000    -0.0414724  
H1       H      0.988310000000     0.479000000000     0.484480000000     0.10467    
H2       H      0.011010000000     0.576830000000     0.647060000000     0.0428153  
H3       H      0.980690000000     0.561300000000     0.678690000000     0.0500038  
H4       H      0.987400000000     0.554990000000     0.495790000000     0.049437   
H5       H      0.007640000000     0.575780000000     0.565800000000     0.0405784  
H6       H      0.932980000000     0.490240000000     0.492900000000     0.0413496  
H7       H      0.954600000000     0.514140000000     0.642830000000     0.0454438  
H8       H      0.934730000000     0.493030000000     0.572900000000     0.0416715  
H9       H      0.939490000000     0.524600000000     0.463540000000     0.0536958  
H10      H      0.025220000000     0.517220000000     0.644010000000     0.104586   
H11      H      0.019630000000     0.456090000000     0.004840000000     0.100676   
H12      H      0.041950000000     0.550580000000     0.154350000000     0.0371555  
H13      H      0.074500000000     0.520690000000     0.188340000000     0.0392994  
H14      H      0.028340000000     0.458060000000     0.091540000000     0.0430036  
H15      H      0.025050000000     0.489890000000     0.158680000000     0.048488   
H16      H      0.085990000000     0.469040000000     0.999720000000     0.0528699  
H17      H      0.094410000000     0.546150000000     0.105190000000     0.0385901  
H18      H      0.097150000000     0.514610000000     0.038020000000     0.0497316  
H19      H      0.068180000000     0.440490000000     0.031900000000     0.0387874  
H20      H      0.079060000000     0.586570000000     0.174600000000     0.0988972  
H21      H      0.512370000000     0.500700000000     0.720870000000     0.103732   
H22      H      0.503330000000     0.500280000000     0.898810000000     0.0388255  
H23      H      0.464390000000     0.529640000000     0.912290000000     0.0394623  
H24      H      0.529910000000     0.572340000000     0.806420000000     0.0421602  
H25      H      0.519860000000     0.557740000000     0.884640000000     0.0483423  
H26      H      0.487360000000     0.561250000000     0.713140000000     0.0487862  
H27      H      0.454040000000     0.494880000000     0.837930000000     0.0398271  
H28      H      0.463140000000     0.510650000000     0.760290000000     0.0479752  
H29      H      0.525760000000     0.563100000000     0.726800000000     0.0467455  
H30      H      0.468520000000     0.463320000000     0.921080000000     0.101599   
H31      H      0.507860000000     0.510620000000     0.344880000000     0.102528   
H32      H      0.557240000000     0.631550000000     0.229070000000     0.0378498  
H33      H      0.572840000000     0.607610000000     0.186140000000     0.0519974  
H34      H      0.544730000000     0.570180000000     0.356190000000     0.0483857  
H35      H      0.544420000000     0.611710000000     0.302440000000     0.0414195  
H36      H      0.557800000000     0.489530000000     0.321460000000     0.0402317  
H37      H      0.569410000000     0.551250000000     0.195910000000     0.0539779  
H38      H      0.568950000000     0.509620000000     0.249330000000     0.040818   
H39      H      0.574840000000     0.513180000000     0.362720000000     0.0541446  
H40      H      0.507970000000     0.618280000000     0.207200000000     0.102707   
H41      H      0.008530000000     0.389930000000     0.764160000000     0.101304   
H42      H      0.852710000000     0.373130000000     0.718300000000     0.0452607  
H43      H      0.875600000000     0.355140000000     0.677140000000     0.0500173  
H44      H      0.922170000000     0.412010000000     0.821040000000     0.0472485  
H45      H      0.877450000000     0.399910000000     0.777870000000     0.0411582  
H46      H      0.970310000000     0.396410000000     0.848840000000     0.0521472  
H47      H      0.925260000000     0.331050000000     0.707050000000     0.0446084  
H48      H      0.969950000000     0.342940000000     0.750600000000     0.0413456  
H49      H      0.986370000000     0.362860000000     0.827460000000     0.0386453  
H50      H      0.867390000000     0.317730000000     0.758490000000     0.103262   
H51      H      0.725040000000     0.377260000000     0.635510000000     0.102483   
H52      H      0.575240000000     0.383700000000     0.554210000000     0.0422383  
H53      H      0.569270000000     0.406860000000     0.602720000000     0.0539195  
H54      H      0.661390000000     0.331960000000     0.594160000000     0.0483782  
H55      H      0.617620000000     0.351330000000     0.554770000000     0.0411455  
H56      H      0.691040000000     0.367250000000     0.700930000000     0.0393201  
H57      H      0.616950000000     0.428110000000     0.642390000000     0.0471805  
H58      H      0.660770000000     0.408870000000     0.681570000000     0.0414293  
H59      H      0.682220000000     0.331760000000     0.677540000000     0.0536317  
H60      H      0.609220000000     0.428040000000     0.526440000000     0.104259   
H61      H      0.778710000000     0.303390000000     0.968020000000     0.103068   
H62      H      0.770280000000     0.211740000000     0.809860000000     0.0516528  
H63      H      0.736190000000     0.193950000000     0.826570000000     0.0368536  
H64      H      0.704420000000     0.251880000000     0.948250000000     0.044573   
H65      H      0.710420000000     0.213550000000     0.890030000000     0.0406141  
H66      H      0.731150000000     0.328870000000     0.938140000000     0.0409231  
H67      H      0.772600000000     0.270190000000     0.820200000000     0.0565331  
H68      H      0.766030000000     0.308730000000     0.877880000000     0.0420311  
H69      H      0.710840000000     0.303400000000     0.972630000000     0.0528982  
H70      H      0.708810000000     0.221200000000     0.770920000000     0.102431   
H71      H      0.741310000000     0.285560000000     0.338850000000     0.104462   
H72      H      0.861210000000     0.334550000000     0.463450000000     0.0384383  
H73      H      0.836360000000     0.346430000000     0.507720000000     0.0523367  
H74      H      0.802120000000     0.328100000000     0.333530000000     0.0509211  
H75      H      0.842950000000     0.326930000000     0.387900000000     0.0423636  
H76      H      0.721260000000     0.333440000000     0.368440000000     0.0397504  
H77      H      0.780680000000     0.338500000000     0.496660000000     0.0547198  
H78      H      0.739830000000     0.339010000000     0.442480000000     0.0421143  
H79      H      0.744140000000     0.353900000000     0.330010000000     0.0544221  
H80      H      0.849200000000     0.282940000000     0.476920000000     0.103896   
H81      H      0.928030000000     0.456400000000     0.249740000000     0.105291   
H82      H      0.842690000000     0.408540000000     0.086970000000     0.0414254  
H83      H      0.856280000000     0.371820000000     0.099940000000     0.0530943  
H84      H      0.918170000000     0.471810000000     0.138700000000     0.0433253  
H85      H      0.873000000000     0.450950000000     0.105280000000     0.0411277  
H86      H      0.973930000000     0.426700000000     0.203220000000     0.0427807  
H87      H      0.891130000000     0.366320000000     0.168940000000     0.0458974  
H88      H      0.936230000000     0.387280000000     0.202570000000     0.0416734  
H89      H      0.968890000000     0.459750000000     0.170880000000     0.0454202  
H90      H      0.825780000000     0.409550000000     0.172000000000     0.103898   
H91      H      0.602430000000     0.471660000000     0.026970000000     0.10453    
H92      H      0.698670000000     0.418500000000     0.186990000000     0.0537223  
H93      H      0.661570000000     0.412200000000     0.206680000000     0.0424521  
H94      H      0.679440000000     0.469430000000     0.043480000000     0.04142    
H95      H      0.698070000000     0.430870000000     0.094720000000     0.0477327  
H96      H      0.628440000000     0.527820000000     0.071340000000     0.0527856  
H97      H      0.630610000000     0.454120000000     0.191450000000     0.0410463  
H98      H      0.612380000000     0.493130000000     0.140570000000     0.0470134  
H99      H      0.645400000000     0.508240000000     0.025400000000     0.0403737  
H100     H      0.655050000000     0.382270000000     0.130580000000     0.105188   
H101     H      0.838340000000     0.636210000000     0.843420000000     0.105104   
H102     H      0.918520000000     0.524560000000     0.920640000000     0.0469097  
H103     H      0.904910000000     0.511160000000     0.867610000000     0.0463952  
H104     H      0.859890000000     0.610990000000     0.953700000000     0.0430496  
H105     H      0.901210000000     0.575500000000     0.949400000000     0.0434476  
H106     H      0.790700000000     0.605730000000     0.887400000000     0.0461044  
H107     H      0.860200000000     0.533020000000     0.834980000000     0.0416247  
H108     H      0.818780000000     0.568370000000     0.839500000000     0.0425864  
H109     H      0.809350000000     0.625440000000     0.930990000000     0.0486739  
H110     H      0.930630000000     0.570160000000     0.854260000000     0.104936   
H111     H      0.565860000000     0.640480000000     0.978580000000     0.104735   
H112     H      0.643820000000     0.682990000000     0.802360000000     0.0450241  
H113     H      0.637330000000     0.717130000000     0.832380000000     0.0499751  
H114     H      0.573590000000     0.613880000000     0.860770000000     0.0412974  
H115     H      0.617570000000     0.635970000000     0.825430000000     0.0424336  
H116     H      0.518050000000     0.656260000000     0.927790000000     0.042208   
H117     H      0.598440000000     0.720040000000     0.890000000000     0.0426414  
H118     H      0.554440000000     0.697990000000     0.925170000000     0.0413761  
H119     H      0.526090000000     0.621340000000     0.901490000000     0.0471711  
H120     H      0.662020000000     0.668260000000     0.889780000000     0.104913   
H121     H      0.824260000000     0.803730000000     0.527300000000     0.103137   
H122     H      0.755210000000     0.675640000000     0.642430000000     0.0374898  
H123     H      0.784830000000     0.681570000000     0.681900000000     0.0531672  
H124     H      0.797650000000     0.712880000000     0.510890000000     0.0572922  
H125     H      0.768170000000     0.686170000000     0.567040000000     0.0421601  
H126     H      0.859170000000     0.765170000000     0.539980000000     0.0363362  
H127     H      0.809240000000     0.737740000000     0.672760000000     0.0554175  
H128     H      0.838230000000     0.764990000000     0.616340000000     0.0418539  
H129     H      0.843450000000     0.742750000000     0.496050000000     0.0496902  
H130     H      0.730190000000     0.720370000000     0.667470000000     0.103005   
H131     H      0.681400000000     0.789600000000     0.219730000000     0.10134    
H132     H      0.788170000000     0.791840000000     0.017850000000     0.0537273  
H133     H      0.810360000000     0.767480000000     0.051750000000     0.0409753  
H134     H      0.696230000000     0.793450000000     0.108300000000     0.0429642  
H135     H      0.726640000000     0.775650000000     0.045470000000     0.0487652  
H136     H      0.728520000000     0.834370000000     0.205250000000     0.0460248  
H137     H      0.805350000000     0.788320000000     0.125590000000     0.0411227  
H138     H      0.775020000000     0.806920000000     0.187800000000     0.0569185  
H139     H      0.696000000000     0.828270000000     0.172430000000     0.0354492  
H140     H      0.769420000000     0.727580000000     0.037540000000     0.10396    
H141     H      0.831640000000     0.689980000000     0.317360000000     0.105013   
H142     H      0.958610000000     0.634290000000     0.234030000000     0.0459278  
H143     H      0.967850000000     0.649150000000     0.288190000000     0.0493171  
H144     H      0.857530000000     0.664720000000     0.209140000000     0.0413781  
H145     H      0.901360000000     0.632420000000     0.213720000000     0.0429518  
H146     H      0.851780000000     0.739200000000     0.255740000000     0.0488808  
H147     H      0.938490000000     0.690040000000     0.315460000000     0.0424261  
H148     H      0.894910000000     0.722540000000     0.310370000000     0.0451454  
H149     H      0.831470000000     0.709940000000     0.229140000000     0.0433605  
H150     H      0.919540000000     0.604360000000     0.293340000000     0.104366   
H151     H      0.624610000000     0.580360000000     0.519440000000     0.104023   
H152     H      0.657100000000     0.692660000000     0.390190000000     0.0463506  
H153     H      0.654410000000     0.720960000000     0.432230000000     0.0501691  
H154     H      0.594950000000     0.623450000000     0.461500000000     0.046953   
H155     H      0.620310000000     0.656330000000     0.408160000000     0.0410535  
H156     H      0.614800000000     0.618750000000     0.585720000000     0.0418582  
H157     H      0.671650000000     0.693640000000     0.516980000000     0.04423    
H158     H      0.646850000000     0.660080000000     0.570250000000     0.0403222  
H159     H      0.580680000000     0.625760000000     0.556700000000     0.0516495  
H160     H      0.705850000000     0.681190000000     0.448270000000     0.102547   
H161     H      0.685980000000     0.866230000000     0.463900000000     0.10506    
H162     H      0.567610000000     0.932280000000     0.341290000000     0.0374159  
H163     H      0.548310000000     0.931210000000     0.394280000000     0.0529291  
H164     H      0.644080000000     0.863150000000     0.358360000000     0.0495983  
H165     H      0.611570000000     0.903000000000     0.330590000000     0.0409671  
H166     H      0.641410000000     0.834630000000     0.478460000000     0.0393791  
H167     H      0.577610000000     0.915990000000     0.464950000000     0.0542631  
H168     H      0.610280000000     0.876340000000     0.492780000000     0.0425685  
H169     H      0.642950000000     0.820910000000     0.422080000000     0.0528781  
H170     H      0.598800000000     0.972780000000     0.367210000000     0.101758   
H171     H      0.633880000000     0.098310000000     0.504880000000     0.104885   
H172     H      0.676980000000     0.231570000000     0.495520000000     0.0380017  
H173     H      0.677620000000     0.241240000000     0.554000000000     0.0527996  
H174     H      0.602920000000     0.159940000000     0.514730000000     0.0469322  
H175     H      0.630400000000     0.205560000000     0.496910000000     0.0411011  
H176     H      0.631410000000     0.100150000000     0.594420000000     0.0417122  
H177     H      0.699040000000     0.179200000000     0.590030000000     0.052516   
H178     H      0.671900000000     0.133320000000     0.606780000000     0.0423915  
H179     H      0.597270000000     0.119520000000     0.585110000000     0.0509305  
H180     H      0.724600000000     0.206010000000     0.502010000000     0.103978   
H181     H      0.506820000000     0.040250000000     0.821840000000     0.103531   
H182     H      0.521030000000     0.015140000000     0.650020000000     0.0378349  
H183     H      0.560870000000     0.040630000000     0.628210000000     0.0407414  
H184     H      0.503460000000     0.098550000000     0.725940000000     0.0428087  
H185     H      0.508990000000     0.074280000000     0.652100000000     0.047289   
H186     H      0.549550000000     0.092510000000     0.819810000000     0.0513159  
H187     H      0.572130000000     0.012700000000     0.709910000000     0.0394846  
H188     H      0.567310000000     0.037660000000     0.782660000000     0.0499343  
H189     H      0.511350000000     0.098920000000     0.806190000000     0.0433073  
H190     H      0.554870000000     0.974170000000     0.639630000000     0.0998382  
H191     H      0.494930000000     0.092870000000     0.317450000000     0.10223    
H192     H      0.581610000000     0.981240000000     0.207920000000     0.0361268  
H193     H      0.550450000000     0.989900000000     0.172290000000     0.0504435  
H194     H      0.514840000000     0.082490000000     0.224670000000     0.0421903  
H195     H      0.527450000000     0.040460000000     0.175360000000     0.0571383  
H196     H      0.560410000000     0.105820000000     0.325010000000     0.0500717  
H197     H      0.600000000000     0.017350000000     0.263160000000     0.0419156  
H198     H      0.587130000000     0.059170000000     0.312790000000     0.0529773  
H199     H      0.534940000000     0.118830000000     0.283000000000     0.036412   
H200     H      0.614740000000     0.003460000000     0.156820000000     0.101294   
H201     H      0.717350000000     0.852140000000     0.870160000000     0.104463   
H202     H      0.621680000000     0.965860000000     0.845010000000     0.0428785  
H203     H      0.595840000000     0.942340000000     0.873840000000     0.0519519  
H204     H      0.692710000000     0.898570000000     0.791410000000     0.0423989  
H205     H      0.666330000000     0.944130000000     0.813770000000     0.041435   
H206     H      0.667720000000     0.822170000000     0.822510000000     0.0488294  
H207     H      0.613940000000     0.893030000000     0.907590000000     0.0448065  
H208     H      0.640370000000     0.847460000000     0.885230000000     0.042996   
H209     H      0.690180000000     0.843250000000     0.785080000000     0.0457516  
H210     H      0.650160000000     0.960490000000     0.926380000000     0.104046   
H211     H      0.635840000000     0.132990000000     0.973140000000     0.102822   
H212     H      0.669390000000     0.187500000000     0.182820000000     0.0419324  
H213     H      0.708270000000     0.189390000000     0.169840000000     0.0542968  
H214     H      0.638880000000     0.110800000000     0.085910000000     0.0509148  
H215     H      0.645220000000     0.146000000000     0.148470000000     0.0419199  
H216     H      0.686740000000     0.112130000000     0.980470000000     0.0386424  
H217     H      0.717870000000     0.187590000000     0.078080000000     0.0481162  
H218     H      0.711210000000     0.152770000000     0.015230000000     0.0406509  
H219     H      0.673400000000     0.084710000000     0.019400000000     0.0540054  
H220     H      0.662110000000     0.225580000000     0.117960000000     0.104301   
H221     H      0.152880000000     0.738610000000     0.929500000000     0.102248   
H222     H      0.055520000000     0.638660000000     0.879030000000     0.044665   
H223     H      0.068490000000     0.629680000000     0.823530000000     0.0506386  
H224     H      0.153110000000     0.690040000000     0.807560000000     0.0414449  
H225     H      0.110280000000     0.657480000000     0.795730000000     0.0426455  
H226     H      0.194860000000     0.692260000000     0.902320000000     0.0495483  
H227     H      0.096760000000     0.652560000000     0.939310000000     0.0420377  
H228     H      0.140210000000     0.684500000000     0.951270000000     0.0438374  
H229     H      0.187290000000     0.715300000000     0.854970000000     0.0478366  
H230     H      0.100130000000     0.599440000000     0.900260000000     0.103434   
H231     H      0.313910000000     0.688350000000     0.984130000000     0.104813   
H232     H      0.387940000000     0.579430000000     0.093490000000     0.0544292  
H233     H      0.360630000000     0.566430000000     0.054320000000     0.0394585  
H234     H      0.388030000000     0.686740000000     0.048150000000     0.0435392  
H235     H      0.408620000000     0.636190000000     0.052200000000     0.0511324  
H236     H      0.313230000000     0.707280000000     0.077340000000     0.0475506  
H237     H      0.320360000000     0.600110000000     0.064130000000     0.0405919  
H238     H      0.299910000000     0.650750000000     0.061110000000     0.043084   
H239     H      0.346780000000     0.720770000000     0.053480000000     0.0489508  
H240     H      0.393960000000     0.581440000000     0.990510000000     0.102507   
H241     H      0.365260000000     0.857970000000     0.014820000000     0.104526   
H242     H      0.496660000000     0.907580000000     0.988950000000     0.0415437  
H243     H      0.489630000000     0.933700000000     0.944660000000     0.0537934  
H244     H      0.410370000000     0.852800000000     0.958970000000     0.0450355  
H245     H      0.461620000000     0.869370000000     0.969040000000     0.0405045  
H246     H      0.344360000000     0.905740000000     0.960680000000     0.0469301  
H247     H      0.431780000000     0.960790000000     0.976400000000     0.0487008  
H248     H      0.380550000000     0.944110000000     0.967810000000     0.0422443  
H249     H      0.357980000000     0.879460000000     0.920650000000     0.0502679  
H250     H      0.473100000000     0.949160000000     0.041660000000     0.103533   
H251     H      0.210940000000     0.770850000000     0.628100000000     0.103421   
H252     H      0.327280000000     0.817330000000     0.756180000000     0.0384018  
H253     H      0.305160000000     0.840960000000     0.791920000000     0.0534507  
H254     H      0.273150000000     0.818070000000     0.622520000000     0.0528403  
H255     H      0.311930000000     0.818130000000     0.679990000000     0.0417564  
H256     H      0.191000000000     0.819070000000     0.650970000000     0.0370045  
H257     H      0.245510000000     0.827410000000     0.783550000000     0.0529361  
H258     H      0.206640000000     0.826370000000     0.726170000000     0.0401914  
H259     H      0.214500000000     0.838300000000     0.611800000000     0.052488   
H260     H      0.302780000000     0.772810000000     0.785930000000     0.103791   
H261     H      0.283720000000     0.732430000000     0.293280000000     0.10495    
H262     H      0.186430000000     0.801270000000     0.118870000000     0.0514122  
H263     H      0.191910000000     0.837530000000     0.144330000000     0.0435973  
H264     H      0.219530000000     0.731820000000     0.229690000000     0.0380961  
H265     H      0.202010000000     0.755380000000     0.160320000000     0.0469084  
H266     H      0.228750000000     0.737110000000     0.314680000000     0.0198661  
H267     H      0.211100000000     0.842030000000     0.221930000000     0.0454942  
H268     H      0.228630000000     0.818640000000     0.291370000000     0.0520586  
H270     H      0.248570000000     0.822160000000     0.142230000000     0.106309   
H271     H      0.189700000000     0.673510000000     0.444610000000     0.10453    
H272     H      0.055780000000     0.628260000000     0.475440000000     0.0360111  
H273     H      0.042630000000     0.630300000000     0.418470000000     0.0519372  
H274     H      0.131020000000     0.698710000000     0.459410000000     0.0475799  
H275     H      0.087280000000     0.670360000000     0.482500000000     0.0410159  
H276     H      0.177670000000     0.678610000000     0.357340000000     0.04067    
H277     H      0.095940000000     0.615010000000     0.364100000000     0.057494   
H278     H      0.140010000000     0.642800000000     0.341890000000     0.0427256  
H279     H      0.158950000000     0.712130000000     0.373780000000     0.0520937  
H280     H      0.077300000000     0.580050000000     0.462600000000     0.102461   
H281     H      0.331090000000     0.701260000000     0.529550000000     0.103789   
H282     H      0.472160000000     0.638830000000     0.536430000000     0.0479036  
H283     H      0.448810000000     0.624250000000     0.579560000000     0.0473759  
H284     H      0.401920000000     0.690290000000     0.437900000000     0.0430115  
H285     H      0.437090000000     0.650990000000     0.458630000000     0.0440977  
H286     H      0.374480000000     0.744330000000     0.511570000000     0.0452425  
H287     H      0.412280000000     0.660740000000     0.598150000000     0.0411972  
H288     H      0.377820000000     0.700750000000     0.577590000000     0.042478   
H289     H      0.368290000000     0.728990000000     0.457150000000     0.0518515  
H290     H      0.429100000000     0.599290000000     0.494340000000     0.103739   
H291     H      0.339080000000     0.870630000000     0.433840000000     0.10464    
H292     H      0.408050000000     0.995840000000     0.420730000000     0.0490854  
H293     H      0.399950000000     0.007820000000     0.476820000000     0.0477944  
H294     H      0.331240000000     0.926990000000     0.396800000000     0.0439232  
H295     H      0.371340000000     0.963570000000     0.389140000000     0.0425222  
H296     H      0.305300000000     0.896040000000     0.509370000000     0.047672   
H297     H      0.384780000000     0.961760000000     0.532960000000     0.04401    
H298     H      0.345130000000     0.924660000000     0.540490000000     0.0415227  
H299     H      0.290420000000     0.909040000000     0.457520000000     0.0463604  
H300     H      0.435000000000     0.954100000000     0.484380000000     0.10415    
H301     H      0.143390000000     0.334120000000     0.704670000000     0.104515   
H302     H      0.174110000000     0.486150000000     0.745680000000     0.0365108  
H303     H      0.137060000000     0.493960000000     0.726550000000     0.0478532  
H304     H      0.193580000000     0.387070000000     0.705660000000     0.0509522  
H305     H      0.193220000000     0.434330000000     0.747270000000     0.0436523  
H306     H      0.128770000000     0.360380000000     0.634440000000     0.0402024  
H307     H      0.106360000000     0.453940000000     0.694670000000     0.0574354  
H308     H      0.106370000000     0.406440000000     0.654000000000     0.0431349  
H309     H      0.166960000000     0.367550000000     0.621820000000     0.0540905  
H310     H      0.156860000000     0.477350000000     0.818060000000     0.102208   
H311     H      0.333440000000     0.363180000000     0.615380000000     0.105114   
H312     H      0.414220000000     0.439120000000     0.468870000000     0.0454682  
H313     H      0.400280000000     0.470860000000     0.498860000000     0.0508946  
H314     H      0.346310000000     0.362040000000     0.501210000000     0.0427909  
H315     H      0.389810000000     0.390570000000     0.476550000000     0.0421796  
H316     H      0.285460000000     0.393330000000     0.572520000000     0.0457347  
H317     H      0.364230000000     0.463230000000     0.563510000000     0.0446144  
H318     H      0.320750000000     0.434650000000     0.588230000000     0.0426431  
H319     H      0.295150000000     0.364140000000     0.534710000000     0.0483493  
H320     H      0.430690000000     0.427250000000     0.558610000000     0.104743   
H321     H      0.439940000000     0.125840000000     0.523120000000     0.104976   
H322     H      0.333820000000     0.187920000000     0.588200000000     0.0483084  
H323     H      0.329170000000     0.167990000000     0.639890000000     0.046732   
H324     H      0.416580000000     0.111450000000     0.642060000000     0.0418687  
H325     H      0.367310000000     0.132440000000     0.656170000000     0.0416263  
H326     H      0.478120000000     0.151220000000     0.586040000000     0.0425377  
H327     H      0.389250000000     0.208990000000     0.574620000000     0.0444885  
H328     H      0.438720000000     0.188130000000     0.560990000000     0.0424316  
H329     H      0.467550000000     0.117740000000     0.614220000000     0.0452749  
H330     H      0.363060000000     0.220250000000     0.661770000000     0.104163   
H331     H      0.279200000000     0.308530000000     0.043070000000     0.103325   
H332     H      0.314170000000     0.331000000000     0.842080000000     0.0431777  
H333     H      0.320580000000     0.293910000000     0.821110000000     0.0529248  
H334     H      0.324930000000     0.310270000000     0.995850000000     0.04584    
H335     H      0.330830000000     0.329340000000     0.919050000000     0.0416049  
H336     H      0.271720000000     0.247260000000     0.025550000000     0.0456608  
H337     H      0.277080000000     0.256950000000     0.868950000000     0.0482598  
H338     H      0.269940000000     0.238810000000     0.945840000000     0.0411831  
H339     H      0.310680000000     0.250010000000     0.034900000000     0.0503305  
H340     H      0.257660000000     0.313440000000     0.842770000000     0.103942   
H341     H      0.353380000000     0.283150000000     0.392890000000     0.103383   
H342     H      0.197480000000     0.213510000000     0.468400000000     0.0395016  
H343     H      0.225210000000     0.203320000000     0.509710000000     0.0534829  
H344     H      0.248820000000     0.259430000000     0.349230000000     0.0531309  
H345     H      0.211520000000     0.236490000000     0.397700000000     0.0454606  
H346     H      0.299400000000     0.298720000000     0.377810000000     0.0189994  
H347     H      0.277170000000     0.224130000000     0.501460000000     0.0544939  
H348     H      0.314440000000     0.247380000000     0.453380000000     0.044056   
H350     H      0.199170000000     0.265260000000     0.492940000000     0.103161   
H351     H      0.110580000000     0.445110000000     0.332720000000     0.104354   
H352     H      0.216810000000     0.368950000000     0.202870000000     0.0512041  
H353     H      0.236300000000     0.389740000000     0.244650000000     0.0455015  
H354     H      0.114150000000     0.377380000000     0.241910000000     0.0407595  
H355     H      0.161410000000     0.351140000000     0.232880000000     0.0448782  
H356     H      0.106670000000     0.453800000000     0.233510000000     0.0480317  
H357     H      0.208160000000     0.431140000000     0.271220000000     0.0412809  
H358     H      0.160930000000     0.457490000000     0.279650000000     0.0450264  
H359     H      0.086390000000     0.422060000000     0.251860000000     0.0443719  
H360     H      0.210080000000     0.342290000000     0.293810000000     0.102429   
H361     H      0.486740000000     0.455900000000     0.181250000000     0.103553   
H362     H      0.342020000000     0.402130000000     0.226910000000     0.0464071  
H363     H      0.350410000000     0.396090000000     0.168770000000     0.0491531  
H364     H      0.431960000000     0.449800000000     0.283040000000     0.0419938  
H365     H      0.391740000000     0.413220000000     0.277780000000     0.0431536  
H366     H      0.446780000000     0.507520000000     0.212080000000     0.0539574  
H367     H      0.380650000000     0.434380000000     0.137050000000     0.0434712  
H368     H      0.420100000000     0.471620000000     0.142590000000     0.0524237  
H369     H      0.466610000000     0.482260000000     0.248120000000     0.0390596  
H370     H      0.394130000000     0.365520000000     0.226130000000     0.104603   
H371     H      0.475430000000     0.105620000000     0.081160000000     0.103289   
H372     H      0.427620000000     0.210030000000     0.204380000000     0.0470678  
H373     H      0.424100000000     0.238410000000     0.162400000000     0.0512883  
H374     H      0.498640000000     0.150310000000     0.131960000000     0.043583   
H375     H      0.469320000000     0.179360000000     0.185890000000     0.0410858  
H376     H      0.480740000000     0.145500000000     0.006660000000     0.0466389  
H377     H      0.413390000000     0.210080000000     0.077620000000     0.0455842  
H378     H      0.442170000000     0.180300000000     0.023910000000     0.0417557  
H379     H      0.512960000000     0.152140000000     0.039830000000     0.04919    
H380     H      0.382480000000     0.188220000000     0.146910000000     0.103858   
H381     H      0.853400000000     0.160470000000     0.627670000000     0.10502    
H382     H      0.978040000000     0.092540000000     0.709080000000     0.0460087  
H383     H      0.956510000000     0.075260000000     0.752220000000     0.0491674  
H384     H      0.857710000000     0.106960000000     0.731650000000     0.0411678  
H385     H      0.898900000000     0.071550000000     0.738060000000     0.0439527  
H386     H      0.840240000000     0.156470000000     0.719530000000     0.044387   
H387     H      0.956250000000     0.134060000000     0.670350000000     0.0413283  
H388     H      0.915130000000     0.169590000000     0.664260000000     0.0456904  
H389     H      0.868530000000     0.184020000000     0.719390000000     0.0511904  
H390     H      0.941060000000     0.049370000000     0.664470000000     0.104456   
H391     H      0.869340000000     0.785120000000     0.784030000000     0.10267    
H392     H      0.935760000000     0.881640000000     0.663380000000     0.0443994  
H393     H      0.928990000000     0.915000000000     0.695070000000     0.0523684  
H394     H      0.858810000000     0.825090000000     0.727330000000     0.0446034  
H395     H      0.891690000000     0.852310000000     0.676120000000     0.0409695  
H396     H      0.867470000000     0.826460000000     0.855100000000     0.0459168  
H397     H      0.933490000000     0.894750000000     0.790000000000     0.0476298  
H398     H      0.901580000000     0.866560000000     0.841180000000     0.0412572  
H399     H      0.836660000000     0.837570000000     0.821410000000     0.050649   
H400     H      0.973200000000     0.871150000000     0.733290000000     0.103822   
H401     H      0.209870000000     0.909380000000     0.908150000000     0.102031   
H402     H      0.142450000000     0.862390000000     0.727620000000     0.0342658  
H403     H      0.104220000000     0.866790000000     0.741890000000     0.0496103  
H404     H      0.141180000000     0.843940000000     0.889080000000     0.0486156  
H405     H      0.124460000000     0.838040000000     0.811030000000     0.0417601  
H406     H      0.160860000000     0.915410000000     0.941630000000     0.0394722  
H407     H      0.149090000000     0.929540000000     0.783820000000     0.0493392  
H408     H      0.164780000000     0.935380000000     0.861660000000     0.0423278  
H409     H      0.157940000000     0.875870000000     0.950730000000     0.0524865  
H410     H      0.143500000000     0.910250000000     0.695400000000     0.100685   
H411     H      0.129270000000     0.063110000000     0.723880000000     0.104076   
H412     H      0.170610000000     0.206360000000     0.771460000000     0.0518824  
H413     H      0.199020000000     0.185160000000     0.799140000000     0.0430599  
H414     H      0.096610000000     0.136250000000     0.730030000000     0.0428886  
H415     H      0.130560000000     0.179010000000     0.727430000000     0.0453236  
H416     H      0.104700000000     0.073050000000     0.810260000000     0.0441862  
H417     H      0.191260000000     0.132320000000     0.814690000000     0.0409903  
H418     H      0.157250000000     0.089590000000     0.817380000000     0.0413615  
H419     H      0.079880000000     0.092310000000     0.774160000000     0.0489895  
H420     H      0.205290000000     0.164020000000     0.712840000000     0.104322   
H421     H      0.990780000000     0.083230000000     0.456070000000     0.105141   
H422     H      0.082450000000     0.977990000000     0.494520000000     0.0378643  
H423     H      0.095210000000     0.994090000000     0.546430000000     0.054306   
H424     H      0.067720000000     0.063840000000     0.408920000000     0.0489778  
H425     H      0.084630000000     0.015730000000     0.438250000000     0.0410199  
H426     H      0.027110000000     0.121480000000     0.478270000000     0.0395446  
H427     H      0.052410000000     0.039800000000     0.570230000000     0.0529017  
H428     H      0.034600000000     0.087360000000     0.540460000000     0.0421182  
H429     H      0.046560000000     0.116150000000     0.425900000000     0.0514353  
H430     H      0.032220000000     0.973350000000     0.524780000000     0.104931   
H431     H      0.034640000000     0.984360000000     0.117300000000     0.103394   
H432     H      0.989680000000     0.008020000000     0.890710000000     0.0483735  
H433     H      0.026540000000     0.021480000000     0.897800000000     0.0482233  
H434     H      0.968230000000     0.956160000000     0.029450000000     0.0405019  
H435     H      0.977560000000     0.960750000000     0.948410000000     0.0431192  
H436     H      0.972240000000     0.009430000000     0.103580000000     0.0533002  
H437     H      0.036390000000     0.034730000000     0.973680000000     0.0412914  
H438     H      0.026530000000     0.030680000000     0.054420000000     0.0479006  
H439     H      0.978680000000     0.970010000000     0.105780000000     0.0414964  
H440     H      0.027200000000     0.956080000000     0.900800000000     0.103087   
H441     H      0.938350000000     0.131920000000     0.191050000000     0.104487   
H442     H      0.875290000000     0.267360000000     0.156260000000     0.0481285  
H443     H      0.867990000000     0.240840000000     0.112790000000     0.0468459  
H444     H      0.922610000000     0.203280000000     0.270720000000     0.0430843  
H445     H      0.883870000000     0.235300000000     0.238900000000     0.0448833  
H446     H      0.984180000000     0.173420000000     0.211120000000     0.0460193  
H447     H      0.910540000000     0.209590000000     0.104850000000     0.0410109  
H448     H      0.949920000000     0.178400000000     0.136680000000     0.0429604  
H449     H      0.964030000000     0.170220000000     0.262430000000     0.0498346  
H450     H      0.838540000000     0.218650000000     0.191930000000     0.104217   
H451     H      0.909040000000     0.982720000000     0.329540000000     0.10582    
H452     H      0.812860000000     0.874720000000     0.253010000000     0.0454438  
H453     H      0.846110000000     0.857620000000     0.273180000000     0.0469761  
H454     H      0.830760000000     0.980630000000     0.272570000000     0.0419404  
H455     H      0.805780000000     0.932160000000     0.278490000000     0.0437778  
H456     H      0.900400000000     0.993640000000     0.229310000000     0.0523154  
H457     H      0.889900000000     0.887320000000     0.266090000000     0.0418514  
H458     H      0.914800000000     0.935730000000     0.259160000000     0.0471611  
H459     H      0.874560000000     0.010090000000     0.267610000000     0.0435328  
H460     H      0.818830000000     0.892000000000     0.346150000000     0.105364   
H461     H      0.151520000000     0.848570000000     0.391450000000     0.102581   
H462     H      0.038550000000     0.937730000000     0.390510000000     0.046436   
H463     H      0.055550000000     0.968960000000     0.417800000000     0.0457552  
H464     H      0.101660000000     0.859060000000     0.433600000000     0.0436193  
H465     H      0.059720000000     0.890170000000     0.409850000000     0.0417808  
H466     H      0.178800000000     0.890430000000     0.456530000000     0.0493359  
H467     H      0.115810000000     0.968060000000     0.413130000000     0.0409333  
H468     H      0.157830000000     0.936940000000     0.435760000000     0.041515   
H469     H      0.153200000000     0.866470000000     0.484010000000     0.047153   
H470     H      0.084990000000     0.955370000000     0.331490000000     0.104304   
H471     H      0.109180000000     0.123150000000     0.253530000000     0.104147   
H472     H      0.254340000000     0.152020000000     0.207110000000     0.0466462  
H473     H      0.234020000000     0.175460000000     0.169380000000     0.0504136  
H474     H      0.182530000000     0.090180000000     0.278910000000     0.041721   
H475     H      0.224760000000     0.124260000000     0.270110000000     0.0428867  
H476     H      0.127070000000     0.076490000000     0.191490000000     0.0471532  
H477     H      0.183320000000     0.163090000000     0.153090000000     0.0424143  
H478     H      0.141310000000     0.128850000000     0.161640000000     0.0430435  
H479     H      0.139440000000     0.065800000000     0.245930000000     0.0472424  
H480     H      0.222030000000     0.188630000000     0.266230000000     0.102323   
N1       N      0.975510000000     0.493270000000     0.464510000000    -0.202856   
N2       N      0.017210000000     0.532350000000     0.667980000000    -0.204624   
N3       N      0.038980000000     0.465510000000     0.991730000000    -0.202481   
N4       N      0.077120000000     0.565770000000     0.190210000000    -0.213133   
N5       N      0.511370000000     0.521040000000     0.703590000000    -0.203579   
N6       N      0.466420000000     0.485840000000     0.929600000000    -0.212492   
N7       N      0.527310000000     0.510760000000     0.364000000000    -0.2037     
N8       N      0.525750000000     0.608700000000     0.189890000000    -0.203235   
N9       N      0.998190000000     0.401170000000     0.790710000000    -0.201959   
N10      N      0.859230000000     0.327020000000     0.728620000000    -0.203971   
N11      N      0.717070000000     0.356230000000     0.644830000000    -0.203287   
N12      N      0.590280000000     0.427780000000     0.546720000000    -0.203284   
N13      N      0.757820000000     0.304560000000     0.983140000000    -0.203685   
N14      N      0.731640000000     0.224640000000     0.773460000000    -0.204065   
N15      N      0.743910000000     0.306110000000     0.322610000000    -0.203564   
N16      N      0.839900000000     0.299430000000     0.497450000000    -0.203369   
N17      N      0.948960000000     0.460170000000     0.235730000000    -0.205096   
N18      N      0.828190000000     0.391840000000     0.149320000000    -0.204502   
N19      N      0.602420000000     0.493230000000     0.040490000000    -0.203761   
N20      N      0.673630000000     0.385820000000     0.150920000000    -0.204348   
N21      N      0.820060000000     0.639190000000     0.864630000000    -0.204243   
N22      N      0.934080000000     0.547920000000     0.863800000000    -0.204242   
N23      N      0.547820000000     0.629290000000     0.964270000000    -0.205036   
N24      N      0.664250000000     0.685300000000     0.865890000000    -0.204368   
N25      N      0.821080000000     0.783680000000     0.509930000000    -0.203885   
N26      N      0.749570000000     0.713390000000     0.683590000000    -0.203942   
N27      N      0.703740000000     0.795500000000     0.222040000000    -0.203335   
N28      N      0.775640000000     0.745840000000     0.017700000000    -0.203676   
N29      N      0.828500000000     0.710050000000     0.299940000000    -0.20404    
N30      N      0.941860000000     0.609750000000     0.288680000000    -0.203957   
N31      N      0.605140000000     0.587350000000     0.535360000000    -0.204302   
N32      N      0.695400000000     0.698170000000     0.430050000000    -0.204152   
N33      N      0.679280000000     0.848530000000     0.443330000000    -0.203536   
N34      N      0.581290000000     0.965130000000     0.387140000000    -0.203565   
N35      N      0.616190000000     0.097840000000     0.527620000000    -0.204737   
N36      N      0.715940000000     0.218380000000     0.528810000000    -0.204542   
N37      N      0.519570000000     0.057230000000     0.836350000000    -0.202926   
N38      N      0.557820000000     0.995100000000     0.624780000000    -0.211972   
N39      N      0.516100000000     0.089710000000     0.330870000000    -0.203163   
N40      N      0.592170000000     0.006600000000     0.150580000000    -0.203873   
N41      N      0.709380000000     0.835430000000     0.848720000000    -0.204458   
N42      N      0.628410000000     0.963050000000     0.914940000000    -0.203686   
N43      N      0.640500000000     0.112180000000     0.987440000000    -0.203592   
N44      N      0.680800000000     0.222040000000     0.138080000000    -0.203494   
N45      N      0.173970000000     0.733360000000     0.917330000000    -0.203635   
N46      N      0.083260000000     0.601170000000     0.876230000000    -0.202851   
N47      N      0.314720000000     0.706560000000     0.006190000000    -0.204413   
N48      N      0.400820000000     0.578910000000     0.023940000000    -0.204041   
N49      N      0.351920000000     0.862790000000     0.986950000000    -0.20524    
N50      N      0.485180000000     0.950570000000     0.011680000000    -0.205172   
N51      N      0.216710000000     0.790390000000     0.610950000000    -0.204124   
N52      N      0.299050000000     0.793870000000     0.800030000000    -0.204118   
N53      N      0.272010000000     0.752500000000     0.294800000000    -0.218787   
N54      N      0.230870000000     0.817280000000     0.120680000000    -0.20341    
N55      N      0.186960000000     0.692040000000     0.423540000000    -0.205661   
N56      N      0.066430000000     0.590740000000     0.436020000000    -0.20473    
N57      N      0.335900000000     0.718110000000     0.506270000000    -0.203243   
N58      N      0.446610000000     0.601640000000     0.517120000000    -0.204115   
N59      N      0.319170000000     0.872050000000     0.451720000000    -0.204245   
N60      N      0.433980000000     0.975910000000     0.471870000000    -0.204107   
N61      N      0.158200000000     0.339310000000     0.678740000000    -0.204151   
N62      N      0.140710000000     0.476630000000     0.792860000000    -0.203598   
N63      N      0.312640000000     0.359850000000     0.600660000000    -0.203788   
N64      N      0.431140000000     0.444250000000     0.534450000000    -0.203486   
N65      N      0.457360000000     0.119430000000     0.544270000000    -0.204865   
N66      N      0.343510000000     0.212580000000     0.646820000000    -0.204536   
N67      N      0.285150000000     0.287530000000     0.055540000000    -0.205035   
N68      N      0.275550000000     0.308360000000     0.821690000000    -0.204903   
N69      N      0.336970000000     0.269060000000     0.380160000000    -0.221469   
N70      N      0.210850000000     0.248810000000     0.510520000000    -0.202935   
N71      N      0.098830000000     0.451390000000     0.303880000000    -0.20397    
N72      N      0.222660000000     0.346780000000     0.265020000000    -0.20419    
N73      N      0.476450000000     0.476790000000     0.179570000000    -0.204393   
N74      N      0.372320000000     0.367410000000     0.214630000000    -0.20468    
N75      N      0.489590000000     0.112360000000     0.055170000000    -0.203932   
N76      N      0.388920000000     0.207290000000     0.164770000000    -0.20413    
N77      N      0.849610000000     0.174240000000     0.655530000000    -0.203864   
N78      N      0.956670000000     0.052630000000     0.690020000000    -0.204164   
N79      N      0.854510000000     0.794700000000     0.806920000000    -0.203914   
N80      N      0.966910000000     0.889980000000     0.714720000000    -0.203728   
N81      N      0.199070000000     0.891360000000     0.923400000000    -0.203501   
N82      N      0.125410000000     0.905610000000     0.716230000000    -0.205281   
N83      N      0.109210000000     0.062240000000     0.741450000000    -0.205017   
N84      N      0.201330000000     0.184590000000     0.728450000000    -0.204411   
N85      N      0.005700000000     0.092350000000     0.432900000000    -0.202971   
N86      N      0.049910000000     0.979860000000     0.545250000000    -0.203136   
N87      N      0.015160000000     0.995550000000     0.126140000000    -0.204465   
N88      N      0.022840000000     0.975510000000     0.882420000000    -0.204296   
N89      N      0.955220000000     0.136510000000     0.214190000000    -0.203862   
N90      N      0.840780000000     0.236990000000     0.170370000000    -0.204428   
N91      N      0.912920000000     0.993430000000     0.298770000000    -0.204529   
N92      N      0.817330000000     0.874130000000     0.323550000000    -0.205181   
N93      N      0.165660000000     0.852670000000     0.418660000000    -0.204214   
N94      N      0.066660000000     0.963540000000     0.349220000000    -0.204779   
N95      N      0.107690000000     0.100490000000     0.245200000000    -0.204522   
N96      N      0.235360000000     0.189760000000     0.237460000000    -0.203722   
O1       O      0.010350000000     0.047890000000     0.276920000000    -0.369206   
O2       O      0.060710000000     0.100570000000     0.271590000000    -0.307977   
O3       O      0.059630000000     0.996380000000     0.292570000000    -0.30761    
O4       O      0.993430000000     0.056270000000     0.383270000000    -0.305683   
O5       O      0.079240000000     0.058460000000     0.244200000000    -0.305593   
O6       O      0.018220000000     0.095900000000     0.358880000000    -0.306102   
O7       O      0.027560000000     0.995780000000     0.349390000000    -0.304101   
O8       O      0.943460000000     0.022870000000     0.257140000000    -0.307894   
O9       O      0.037170000000     0.010590000000     0.190890000000    -0.306745   
O10      O      0.957860000000     0.007720000000     0.324680000000    -0.306636   
O11      O      0.990750000000     0.024060000000     0.177560000000    -0.307647   
O12      O      0.963930000000     0.086920000000     0.217630000000    -0.308027   
O13      O      0.990970000000     0.117370000000     0.260160000000    -0.303154   
O14      O      0.038310000000     0.976630000000     0.713940000000    -0.368902   
O15      O      0.036580000000     0.951650000000     0.818170000000    -0.305648   
O16      O      0.065610000000     0.038410000000     0.753570000000    -0.310954   
O17      O      0.103340000000     0.948120000000     0.692230000000    -0.307388   
O18      O      0.022720000000     0.999150000000     0.814880000000    -0.309898   
O19      O      0.080250000000     0.919850000000     0.742580000000    -0.304195   
O20      O      0.096830000000     0.020240000000     0.702950000000    -0.307849   
O21      O      0.021870000000     0.970310000000     0.607160000000    -0.302177   
O22      O      0.996510000000     0.035120000000     0.728540000000    -0.308918   
O23      O      0.068390000000     0.985460000000     0.615960000000    -0.307938   
O24      O      0.977820000000     0.007900000000     0.673010000000    -0.303851   
O25      O      0.981440000000     0.934910000000     0.685700000000    -0.301587   
O26      O      0.009260000000     0.912180000000     0.737040000000    -0.307982   
O27      O      0.306770000000     0.276280000000     0.220760000000    -0.364182   
O28      O      0.374180000000     0.247800000000     0.205440000000    -0.304232   
O29      O      0.270960000000     0.214690000000     0.198470000000    -0.30657    
O30      O      0.305270000000     0.268590000000     0.325720000000    -0.346137   
O31      O      0.340570000000     0.219670000000     0.171490000000    -0.307599   
O32      O      0.353250000000     0.268660000000     0.306260000000    -0.300168   
O33      O      0.255830000000     0.232520000000     0.264390000000    -0.30965    
O34      O      0.260430000000     0.333020000000     0.218790000000    -0.307443   
O35      O      0.293850000000     0.258630000000     0.116950000000    -0.308383   
O36      O      0.250000000000     0.304990000000     0.278190000000    -0.310819   
O37      O      0.288880000000     0.307670000000     0.125230000000    -0.308216   
O38      O      0.329070000000     0.343770000000     0.198660000000    -0.307303   
O39      O      0.366020000000     0.318260000000     0.229500000000    -0.306277   
O40      O      0.250850000000     0.275850000000     0.663560000000    -0.369102   
O41      O      0.229340000000     0.206780000000     0.674840000000    -0.30726    
O42      O      0.242880000000     0.293580000000     0.768750000000    -0.309879   
O43      O      0.320000000000     0.253700000000     0.673210000000    -0.30657    
O44      O      0.209920000000     0.234650000000     0.729160000000    -0.307181   
O45      O      0.294370000000     0.220270000000     0.634250000000    -0.307183   
O46      O      0.290490000000     0.296300000000     0.750740000000    -0.306032   
O47      O      0.269340000000     0.333530000000     0.601690000000    -0.30356    
O48      O      0.187730000000     0.301690000000     0.702360000000    -0.307605   
O49      O      0.305140000000     0.322370000000     0.650290000000    -0.306368   
O50      O      0.201340000000     0.327940000000     0.642570000000    -0.30603    
O51      O      0.221480000000     0.282970000000     0.564340000000    -0.306381   
O52      O      0.235140000000     0.235840000000     0.574820000000    -0.308023   
O53      O      0.251220000000     0.782300000000     0.449940000000    -0.367824   
O54      O      0.192550000000     0.811700000000     0.399410000000    -0.307989   
O55      O      0.234060000000     0.811820000000     0.546670000000    -0.309634   
O56      O      0.220590000000     0.717090000000     0.465530000000    -0.307065   
O57      O      0.206900000000     0.839280000000     0.457450000000    -0.308487   
O58      O      0.201230000000     0.739160000000     0.405430000000    -0.312868   
O59      O      0.229990000000     0.762470000000     0.550570000000    -0.306048   
O60      O      0.318130000000     0.755200000000     0.461280000000    -0.30463    
O61      O      0.277160000000     0.848480000000     0.474780000000    -0.30732    
O62      O      0.286990000000     0.729550000000     0.504220000000    -0.304847   
O63      O      0.309250000000     0.824400000000     0.431170000000    -0.306788   
O64      O      0.291990000000     0.768950000000     0.361830000000    -0.301194   
O65      O      0.244430000000     0.776500000000     0.342270000000    -0.342022   
O66      O      0.260330000000     0.800060000000     0.959320000000    -0.369091   
O67      O      0.264640000000     0.808640000000     0.066600000000    -0.308541   
O68      O      0.203260000000     0.844950000000     0.954460000000    -0.304982   
O69      O      0.309930000000     0.852660000000     0.947820000000    -0.308686   
O70      O      0.217010000000     0.808650000000     0.047750000000    -0.302612   
O71      O      0.321420000000     0.824920000000     0.007040000000    -0.307375   
O72      O      0.241960000000     0.865550000000     0.920380000000    -0.30898    
O73      O      0.281940000000     0.771520000000     0.863330000000    -0.306924   
O74      O      0.192530000000     0.772940000000     0.955980000000    -0.305308   
O75      O      0.283910000000     0.820990000000     0.860620000000    -0.310038   
O76      O      0.222850000000     0.745550000000     0.913950000000    -0.305178   
O77      O      0.287730000000     0.732750000000     0.955730000000    -0.30762    
O78      O      0.302040000000     0.755060000000     0.018860000000    -0.305254   
O79      O      0.559180000000     0.034790000000     0.992990000000    -0.367746   
O80      O      0.524560000000     0.098290000000     0.003870000000    -0.302078   
O81      O      0.505670000000     0.993710000000     0.036530000000    -0.30801    
O82      O      0.528400000000     0.026180000000     0.894540000000    -0.309752   
O83      O      0.508740000000     0.065780000000     0.055230000000    -0.308391   
O84      O      0.542070000000     0.073570000000     0.901000000000    -0.301078   
O85      O      0.519610000000     0.975570000000     0.970510000000    -0.309772   
O86      O      0.619360000000     0.995540000000     0.972280000000    -0.303325   
O87      O      0.556220000000     0.019620000000     0.100590000000    -0.308565   
O88      O      0.583340000000     0.984690000000     0.924120000000    -0.308884   
O89      O      0.602760000000     0.016190000000     0.077250000000    -0.305648   
O90      O      0.624230000000     0.065300000000     0.004130000000    -0.305972   
O91      O      0.593630000000     0.097530000000     0.971550000000    -0.305261   
O92      O      0.525480000000     0.039780000000     0.482660000000    -0.367261   
O93      O      0.498000000000     0.089730000000     0.553090000000    -0.30871    
O94      O      0.495400000000     0.068200000000     0.392390000000    -0.305329   
O95      O      0.589950000000     0.071550000000     0.476320000000    -0.307349   
O96      O      0.470570000000     0.085820000000     0.491290000000    -0.30759    
O97      O      0.570080000000     0.080230000000     0.543640000000    -0.310867   
O98      O      0.544370000000     0.072490000000     0.388910000000    -0.306051   
O99      O      0.547160000000     0.975740000000     0.441450000000    -0.307419   
O100     O      0.458740000000     0.018930000000     0.456080000000    -0.305397   
O101     O      0.576350000000     0.011700000000     0.415840000000    -0.307694   
O102     O      0.482610000000     0.981270000000     0.488660000000    -0.306804   
O103     O      0.544060000000     0.986520000000     0.550080000000    -0.296943   
O104     O      0.529430000000     0.027630000000     0.589300000000    -0.326981   
O105     O      0.757410000000     0.783840000000     0.370250000000    -0.36758    
O106     O      0.800100000000     0.827340000000     0.309970000000    -0.309454   
O107     O      0.727490000000     0.837710000000     0.429920000000    -0.304585   
O108     O      0.703480000000     0.781790000000     0.295640000000    -0.305857   
O109     O      0.788690000000     0.849840000000     0.374240000000    -0.306334   
O110     O      0.746060000000     0.794310000000     0.263380000000    -0.308993   
O111     O      0.692750000000     0.810710000000     0.396240000000    -0.30696    
O112     O      0.740000000000     0.720560000000     0.420080000000    -0.307516   
O113     O      0.790480000000     0.807620000000     0.461540000000    -0.305411   
O114     O      0.700200000000     0.740400000000     0.388140000000    -0.306502   
O115     O      0.798150000000     0.759040000000     0.452590000000    -0.308815   
O116     O      0.798530000000     0.724950000000     0.356490000000    -0.308095   
O117     O      0.803800000000     0.754520000000     0.296940000000    -0.305107   
O118     O      0.763200000000     0.736170000000     0.848990000000    -0.368027   
O119     O      0.826590000000     0.752820000000     0.802480000000    -0.307618   
O120     O      0.746480000000     0.805420000000     0.872590000000    -0.307585   
O121     O      0.733870000000     0.735970000000     0.747540000000    -0.306724   
O122     O      0.814070000000     0.787990000000     0.851710000000    -0.304615   
O123     O      0.777730000000     0.713710000000     0.747240000000    -0.308971   
O124     O      0.715090000000     0.788270000000     0.821250000000    -0.305854   
O125     O      0.712080000000     0.690970000000     0.887460000000    -0.305584   
O126     O      0.780810000000     0.765090000000     0.946850000000    -0.304034   
O127     O      0.694150000000     0.719690000000     0.832930000000    -0.307597   
O128     O      0.761270000000     0.719970000000     0.956020000000    -0.305883   
O129     O      0.781660000000     0.669250000000     0.885230000000    -0.304347   
O130     O      0.812200000000     0.683730000000     0.830900000000    -0.307479   
O131     O      0.753900000000     0.307150000000     0.153190000000    -0.368471   
O132     O      0.692590000000     0.342050000000     0.125890000000    -0.306304   
O133     O      0.750470000000     0.331220000000     0.256670000000    -0.307075   
O134     O      0.722040000000     0.242280000000     0.170360000000    -0.304507   
O135     O      0.717150000000     0.367560000000     0.177880000000    -0.307433   
O136     O      0.695500000000     0.269150000000     0.122250000000    -0.306434   
O137     O      0.747510000000     0.281720000000     0.255860000000    -0.304238   
O138     O      0.818460000000     0.276370000000     0.135910000000    -0.30721    
O139     O      0.788400000000     0.369350000000     0.181190000000    -0.307717   
O140     O      0.793370000000     0.249810000000     0.186190000000    -0.306245   
O141     O      0.810940000000     0.347230000000     0.123930000000    -0.309441   
O142     O      0.780510000000     0.304030000000     0.051010000000    -0.308084   
O143     O      0.731520000000     0.307650000000     0.048530000000    -0.305853   
O144     O      0.785940000000     0.266810000000     0.638360000000    -0.368389   
O145     O      0.828500000000     0.216410000000     0.683670000000    -0.306773   
O146     O      0.762500000000     0.225490000000     0.555220000000    -0.304904   
O147     O      0.731610000000     0.243510000000     0.702690000000    -0.308391   
O148     O      0.822690000000     0.205520000000     0.611310000000    -0.303612   
O149     O      0.773980000000     0.241480000000     0.740290000000    -0.309696   
O150     O      0.724590000000     0.244700000000     0.593020000000    -0.308849   
O151     O      0.761920000000     0.336190000000     0.627800000000    -0.306331   
O152     O      0.822800000000     0.263210000000     0.543770000000    -0.304921   
O153     O      0.725710000000     0.306250000000     0.650120000000    -0.308161   
O154     O      0.815270000000     0.310630000000     0.562320000000    -0.307836   
O155     O      0.827800000000     0.322300000000     0.669010000000    -0.304519   
O156     O      0.831240000000     0.285540000000     0.719100000000    -0.307707   
O157     O      0.504760000000     0.545400000000     0.053860000000    -0.373558   
O158     O      0.470840000000     0.520640000000     0.141660000000    -0.307926   
O159     O      0.483390000000     0.485120000000     0.004050000000    -0.295919   
O160     O      0.447010000000     0.567940000000     0.998950000000    -0.310616   
O161     O      0.498800000000     0.484770000000     0.112410000000    -0.307916   
O162     O      0.438180000000     0.567880000000     0.072690000000    -0.307644   
O163     O      0.495980000000     0.521500000000     0.954830000000    -0.327871   
O164     O      0.549140000000     0.597220000000     0.023020000000    -0.307683   
O165     O      0.552350000000     0.492450000000     0.039430000000    -0.305934   
O166     O      0.513810000000     0.592110000000     0.971420000000    -0.311081   
O167     O      0.575340000000     0.534030000000     0.060600000000    -0.30796    
O168     O      0.541560000000     0.581700000000     0.129430000000    -0.309383   
O169     O      0.493350000000     0.588310000000     0.140400000000    -0.306308   
O170     O      0.518670000000     0.515260000000     0.533900000000    -0.365107   
O171     O      0.475390000000     0.459420000000     0.562520000000    -0.30441    
O172     O      0.462680000000     0.555510000000     0.497200000000    -0.305592   
O173     O      0.515090000000     0.544360000000     0.635510000000    -0.303476   
O174     O      0.456150000000     0.483550000000     0.504120000000    -0.304796   
O175     O      0.513940000000     0.494790000000     0.638720000000    -0.306542   
O176     O      0.486920000000     0.580430000000     0.550220000000    -0.30587    
O177     O      0.583850000000     0.544000000000     0.514020000000    -0.307996   
O178     O      0.499440000000     0.513060000000     0.427380000000    -0.306241   
O179     O      0.558520000000     0.574730000000     0.558230000000    -0.304838   
O180     O      0.548340000000     0.510610000000     0.433770000000    -0.306325   
O181     O      0.576860000000     0.472220000000     0.516500000000    -0.305674   
O182     O      0.547510000000     0.451280000000     0.567300000000    -0.304867   
O183     O      0.017700000000     0.529000000000     0.317270000000    -0.370084   
O184     O      0.969930000000     0.516170000000     0.396370000000    -0.305041   
O185     O      0.070930000000     0.482740000000     0.346650000000    -0.30331    
O186     O      0.993190000000     0.484100000000     0.240770000000    -0.311605   
O187     O      0.012120000000     0.493030000000     0.412440000000    -0.304524   
O188     O      0.958300000000     0.492980000000     0.292000000000    -0.305746   
O189     O      0.062020000000     0.479540000000     0.273190000000    -0.311062   
O190     O      0.056290000000     0.577120000000     0.260250000000    -0.29914    
O191     O      0.058480000000     0.545740000000     0.403360000000    -0.305987   
O192     O      0.040270000000     0.538570000000     0.216760000000    -0.330242   
O193     O      0.043020000000     0.586770000000     0.368410000000    -0.309898   
O194     O      0.989910000000     0.594860000000     0.294900000000    -0.306082   
O195     O      0.953990000000     0.563740000000     0.314680000000    -0.305524   
O196     O      0.034990000000     0.504220000000     0.830940000000    -0.366896   
O197     O      0.091740000000     0.478240000000     0.775200000000    -0.308997   
O198     O      0.078280000000     0.551090000000     0.880880000000    -0.305906   
O199     O      0.016880000000     0.545480000000     0.742480000000    -0.302917   
O200     O      0.106080000000     0.489660000000     0.844480000000    -0.306107   
O201     O      0.035260000000     0.501720000000     0.721490000000    -0.310732   
O202     O      0.048580000000     0.576210000000     0.834580000000    -0.301488   
O203     O      0.965930000000     0.508470000000     0.865280000000    -0.304763   
O204     O      0.061340000000     0.488380000000     0.931990000000    -0.304527   
O205     O      0.980350000000     0.551540000000     0.835310000000    -0.306034   
O206     O      0.014550000000     0.473870000000     0.926390000000    -0.307197   
O207     O      0.994680000000     0.443750000000     0.832460000000    -0.305106   
O208     O      0.028450000000     0.440680000000     0.778210000000    -0.305986   
Zn1      Zn     0.019660000000     0.089380000000     0.291540000000     0.450172   
Zn2      Zn     0.045620000000     0.028990000000     0.251570000000     0.452236   
Zn3      Zn     0.997540000000     0.027430000000     0.331780000000     0.45295    
Zn4      Zn     0.978210000000     0.045870000000     0.233410000000     0.456579   
Zn5      Zn     0.041560000000     0.941230000000     0.752060000000     0.453178   
Zn6      Zn     0.030690000000     0.011150000000     0.751440000000     0.456795   
Zn7      Zn     0.075670000000     0.982820000000     0.682310000000     0.453573   
Zn8      Zn     0.005560000000     0.972090000000     0.671040000000     0.446978   
Zn9      Zn     0.348910000000     0.277320000000     0.239610000000     0.450388   
Zn10     Zn     0.302840000000     0.243110000000     0.178760000000     0.454028   
Zn11     Zn     0.279390000000     0.270880000000     0.271360000000     0.447731   
Zn12     Zn     0.296350000000     0.313860000000     0.191390000000     0.453836   
Zn13     Zn     0.252550000000     0.235930000000     0.637170000000     0.452633   
Zn14     Zn     0.223440000000     0.276230000000     0.714100000000     0.456218   
Zn15     Zn     0.290410000000     0.286580000000     0.684450000000     0.453582   
Zn16     Zn     0.236530000000     0.304680000000     0.619300000000     0.449916   
Zn17     Zn     0.222640000000     0.778120000000     0.400720000000     0.453026   
Zn18     Zn     0.243320000000     0.819390000000     0.481620000000     0.453378   
Zn19     Zn     0.247300000000     0.748670000000     0.491420000000     0.453098   
Zn20     Zn     0.291710000000     0.783160000000     0.426370000000     0.451864   
Zn21     Zn     0.286570000000     0.797060000000     0.011150000000     0.456612   
Zn22     Zn     0.219250000000     0.805950000000     0.979200000000     0.446915   
Zn23     Zn     0.273190000000     0.833890000000     0.923190000000     0.45683    
Zn24     Zn     0.263240000000     0.763600000000     0.923800000000     0.453654   
Zn25     Zn     0.554970000000     0.074990000000     0.967330000000     0.445769   
Zn26     Zn     0.532960000000     0.028920000000     0.044550000000     0.453112   
Zn27     Zn     0.547760000000     0.006310000000     0.947200000000     0.456701   
Zn28     Zn     0.600270000000     0.027650000000     0.011310000000     0.449344   
Zn29     Zn     0.530470000000     0.059500000000     0.541360000000     0.445188   
Zn30     Zn     0.488630000000     0.052490000000     0.455390000000     0.455009   
Zn31     Zn     0.558440000000     0.048900000000     0.442770000000     0.453278   
Zn32     Zn     0.524520000000     0.996530000000     0.490800000000     0.452338   
Zn33     Zn     0.776670000000     0.789360000000     0.311920000000     0.450607   
Zn34     Zn     0.765380000000     0.818780000000     0.408050000000     0.454499   
Zn35     Zn     0.714810000000     0.778970000000     0.361690000000     0.451114   
Zn36     Zn     0.772840000000     0.748010000000     0.399230000000     0.452353   
Zn37     Zn     0.794300000000     0.722060000000     0.808880000000     0.45364    
Zn38     Zn     0.776270000000     0.772380000000     0.879760000000     0.450622   
Zn39     Zn     0.728010000000     0.745450000000     0.813300000000     0.45334    
Zn40     Zn     0.754500000000     0.704840000000     0.892970000000     0.452236   
Zn41     Zn     0.719190000000     0.306790000000     0.113920000000     0.45319    
Zn42     Zn     0.753010000000     0.342650000000     0.191380000000     0.453655   
Zn43     Zn     0.754030000000     0.271050000000     0.190290000000     0.450813   
Zn44     Zn     0.789770000000     0.308280000000     0.116830000000     0.454976   
Zn45     Zn     0.804410000000     0.253550000000     0.694100000000     0.452022   
Zn46     Zn     0.798350000000     0.240570000000     0.589090000000     0.452361   
Zn47     Zn     0.743200000000     0.265130000000     0.645960000000     0.454112   
Zn48     Zn     0.797090000000     0.307970000000     0.624290000000     0.448727   
Zn49     Zn     0.477000000000     0.555810000000     0.100330000000     0.456204   
Zn50     Zn     0.509800000000     0.502370000000     0.052470000000     0.455674   
Zn51     Zn     0.490500000000     0.557240000000     0.994900000000     0.448831   
Zn52     Zn     0.542090000000     0.563820000000     0.067140000000     0.456611   
Zn53     Zn     0.514080000000     0.481010000000     0.574230000000     0.450857   
Zn54     Zn     0.485260000000     0.516670000000     0.491710000000     0.450488   
Zn55     Zn     0.519860000000     0.552640000000     0.568660000000     0.447815   
Zn56     Zn     0.555780000000     0.510480000000     0.500660000000     0.453122   
Zn57     Zn     0.975880000000     0.525700000000     0.330390000000     0.454314   
Zn58     Zn     0.039750000000     0.512390000000     0.367550000000     0.452109   
Zn59     Zn     0.028060000000     0.507860000000     0.262460000000     0.449756   
Zn60     Zn     0.026560000000     0.571300000000     0.310220000000     0.452462   
Zn61     Zn     0.047430000000     0.481560000000     0.778370000000     0.454343   
Zn62     Zn     0.068980000000     0.507620000000     0.871420000000     0.451538   
Zn63     Zn     0.021160000000     0.543610000000     0.810960000000     0.447675   
Zn64     Zn     0.003070000000     0.483350000000     0.862330000000     0.450665   


