data_structure

_audit_creation_method RASPA-1.0
_audit_creation_date 2023-5-19
_audit_author_name 'Poobodin Mano'

_cell_length_a    33.857
_cell_length_b    33.7355
_cell_length_c    33.7397
_cell_angle_alpha 90
_cell_angle_beta  90
_cell_angle_gamma 90
_cell_volume      38536.9

_symmetry_cell_setting          triclinic
_symmetry_space_group_name_Hall 'P 1'
_symmetry_space_group_name_H-M  'P 1'
_symmetry_Int_Tables_number     1

_symmetry_equiv_pos_as_xyz 'x,y,z'

loop_
_atom_site_label
_atom_site_type_symbol
_atom_site_fract_x
_atom_site_fract_y
_atom_site_fract_z
_atom_site_charge
C1       C      0.998560000000     0.991630000000     0.109120000000     0.365288   
C2       C      0.110160000000     0.001910000000     0.999320000000     0.367794   
C3       C      0.001140000000     0.887180000000     0.002810000000     0.363487   
C4       C      0.001130000000     0.989270000000     0.891010000000     0.367842   
C5       C      0.001840000000     0.104640000000     0.999690000000     0.361336   
C6       C      0.890270000000     0.002540000000     0.996770000000     0.365528   
C7       C      0.109930000000     0.003920000000     0.501360000000     0.367403   
C8       C      0.997610000000     0.111330000000     0.499940000000     0.362582   
C9       C      0.999860000000     0.000510000000     0.390580000000     0.364694   
C10      C      0.889770000000     0.002350000000     0.501660000000     0.370142   
C11      C      0.000500000000     0.001930000000     0.610350000000     0.367739   
C12      C      0.999130000000     0.893800000000     0.500690000000     0.364825   
C13      C      0.003200000000     0.386540000000     0.999680000000     0.364183   
C14      C      0.995950000000     0.500560000000     0.109610000000     0.365072   
C15      C      0.107490000000     0.490150000000     0.999030000000     0.365196   
C16      C      0.003270000000     0.605400000000     0.003280000000     0.364414   
C17      C      0.888810000000     0.491900000000     0.003900000000     0.362673   
C18      C      0.992230000000     0.503240000000     0.892130000000     0.365464   
C19      C      0.990990000000     0.393270000000     0.502230000000     0.365206   
C20      C      0.887030000000     0.502400000000     0.500270000000     0.366364   
C21      C      0.999850000000     0.505540000000     0.610350000000     0.365736   
C22      C      0.991190000000     0.612230000000     0.498560000000     0.366504   
C23      C      0.001980000000     0.501710000000     0.391330000000     0.365713   
C24      C      0.105650000000     0.502520000000     0.502370000000     0.364622   
C25      C      0.390730000000     0.002680000000     0.992000000000     0.366132   
C26      C      0.500590000000     0.999260000000     0.106950000000     0.365857   
C27      C      0.498170000000     0.891720000000     0.003010000000     0.364956   
C28      C      0.609090000000     0.001790000000     0.991060000000     0.363884   
C29      C      0.498980000000     0.109950000000     0.004410000000     0.366596   
C30      C      0.499690000000     0.001140000000     0.887560000000     0.364268   
C31      C      0.390680000000     0.003300000000     0.503330000000     0.367368   
C32      C      0.500100000000     0.002190000000     0.388530000000     0.363917   
C33      C      0.502510000000     0.111680000000     0.492580000000     0.366016   
C34      C      0.609480000000     0.001490000000     0.503830000000     0.369366   
C35      C      0.500570000000     0.892800000000     0.490720000000     0.365787   
C36      C      0.499550000000     0.001380000000     0.605740000000     0.361623   
C37      C      0.388010000000     0.499870000000     0.001240000000     0.364986   
C38      C      0.491600000000     0.391380000000     0.001610000000     0.366819   
C39      C      0.502520000000     0.502870000000     0.892650000000     0.364237   
C40      C      0.607570000000     0.497830000000     0.003140000000     0.362621   
C41      C      0.501320000000     0.499950000000     0.112040000000     0.365782   
C42      C      0.493400000000     0.609890000000     0.004500000000     0.364489   
C43      C      0.386440000000     0.502410000000     0.503650000000     0.366672   
C44      C      0.493590000000     0.503160000000     0.610600000000     0.361898   
C45      C      0.502330000000     0.393090000000     0.502090000000     0.365557   
C46      C      0.606570000000     0.501670000000     0.501670000000     0.367869   
C47      C      0.502470000000     0.611550000000     0.499470000000     0.365352   
C48      C      0.491780000000     0.501920000000     0.393800000000     0.363759   
C49      C      0.527000000000     0.477950000000     0.827260000000    -0.0268608  
C50      C      0.470510000000     0.529760000000     0.675940000000    -0.0269909  
C51      C      0.518160000000     0.475650000000     0.674380000000    -0.0273659  
C52      C      0.510180000000     0.487970000000     0.715740000000     0.0164443  
C53      C      0.483000000000     0.518640000000     0.716730000000     0.0161754  
C54      C      0.470690000000     0.535320000000     0.752730000000    -0.065941   
C55      C      0.478650000000     0.531420000000     0.828990000000    -0.0271599  
C56      C      0.526770000000     0.472430000000     0.750530000000    -0.0660743  
C57      C      0.487190000000     0.519700000000     0.787540000000     0.0162341  
C58      C      0.514560000000     0.489180000000     0.786510000000     0.0162668  
C59      C      0.525980000000     0.525000000000     0.177280000000    -0.0267116  
C60      C      0.466870000000     0.476660000000     0.328640000000    -0.0267432  
C61      C      0.516840000000     0.528620000000     0.329980000000    -0.0272003  
C62      C      0.508230000000     0.516610000000     0.288700000000     0.0164766  
C63      C      0.479730000000     0.487150000000     0.287830000000     0.0161862  
C64      C      0.466810000000     0.470790000000     0.251930000000    -0.0660202  
C65      C      0.475350000000     0.473680000000     0.175760000000    -0.0269497  
C66      C      0.525580000000     0.531200000000     0.253900000000    -0.0661688  
C67      C      0.484090000000     0.485470000000     0.217100000000     0.0162405  
C68      C      0.512750000000     0.514760000000     0.218010000000     0.0163095  
C69      C      0.466280000000     0.828120000000     0.482580000000    -0.0268147  
C70      C      0.538780000000     0.675560000000     0.491430000000    -0.0268223  
C71      C      0.467280000000     0.676040000000     0.499810000000    -0.0271915  
C72      C      0.482390000000     0.716730000000     0.493400000000     0.0167567  
C73      C      0.523270000000     0.716780000000     0.491550000000     0.0164136  
C74      C      0.544660000000     0.752380000000     0.491030000000    -0.0660052  
C75      C      0.537540000000     0.828950000000     0.492770000000    -0.0272557  
C76      C      0.460530000000     0.751850000000     0.489980000000    -0.0662131  
C77      C      0.522740000000     0.787660000000     0.489950000000     0.016572   
C78      C      0.481920000000     0.787270000000     0.487070000000     0.0166569  
C79      C      0.538580000000     0.175880000000     0.486520000000    -0.0266095  
C80      C      0.467710000000     0.328680000000     0.496620000000    -0.0275316  
C81      C      0.539300000000     0.328810000000     0.504240000000    -0.0265629  
C82      C      0.524120000000     0.287720000000     0.498910000000     0.0156322  
C83      C      0.483230000000     0.287740000000     0.497460000000     0.0175891  
C84      C      0.461510000000     0.252460000000     0.496890000000    -0.0671032  
C85      C      0.467380000000     0.176150000000     0.497170000000    -0.027426   
C86      C      0.545650000000     0.252310000000     0.495110000000    -0.0652279  
C87      C      0.482990000000     0.217080000000     0.495400000000     0.0176107  
C88      C      0.523790000000     0.217000000000     0.492210000000     0.0156299  
C89      C      0.517930000000     0.673950000000     0.031590000000    -0.0269573  
C90      C      0.468820000000     0.827680000000     0.981430000000    -0.0269894  
C91      C      0.521040000000     0.827080000000     0.031140000000    -0.0266437  
C92      C      0.508290000000     0.786090000000     0.021320000000     0.0160188  
C93      C      0.478540000000     0.786520000000     0.993110000000     0.0164849  
C94      C      0.462020000000     0.751360000000     0.978400000000    -0.066214   
C95      C      0.465400000000     0.674700000000     0.982220000000    -0.0267489  
C96      C      0.523250000000     0.750370000000     0.036310000000    -0.0659623  
C97      C      0.476940000000     0.715660000000     0.993420000000     0.0164244  
C98      C      0.506750000000     0.715210000000     0.021550000000     0.0161128  
C99      C      0.473590000000     0.173620000000     0.032590000000    -0.026393   
C100     C      0.515350000000     0.327070000000     0.975120000000    -0.0269682  
C101     C      0.466040000000     0.326910000000     0.027750000000    -0.0263601  
C102     C      0.478310000000     0.285830000000     0.017710000000     0.0154425  
C103     C      0.506320000000     0.286130000000     0.987770000000     0.0172     
C104     C      0.522990000000     0.251100000000     0.973250000000    -0.0669969  
C105     C      0.522770000000     0.175020000000     0.979850000000    -0.02701    
C106     C      0.465410000000     0.250190000000     0.034850000000    -0.0653944  
C107     C      0.510140000000     0.215610000000     0.990310000000     0.0172256  
C108     C      0.482150000000     0.215020000000     0.020270000000     0.0154501  
C109     C      0.501890000000     0.965160000000     0.670100000000    -0.0270668  
C110     C      0.504890000000     0.036850000000     0.823150000000    -0.0267541  
C111     C      0.494670000000     0.965340000000     0.823150000000    -0.0269584  
C112     C      0.497970000000     0.980640000000     0.782060000000     0.0169831  
C113     C      0.501400000000     0.021570000000     0.782070000000     0.0159703  
C114     C      0.501100000000     0.043320000000     0.746680000000    -0.0658361  
C115     C      0.496840000000     0.037230000000     0.670200000000    -0.0269642  
C116     C      0.498050000000     0.958930000000     0.746630000000    -0.0663787  
C117     C      0.499230000000     0.021680000000     0.711260000000     0.0160387  
C118     C      0.499700000000     0.980620000000     0.711220000000     0.0170129  
C119     C      0.464710000000     0.001280000000     0.171260000000    -0.0278234  
C120     C      0.535780000000     0.007240000000     0.324190000000    -0.0271983  
C121     C      0.464720000000     0.995660000000     0.324180000000    -0.0265027  
C122     C      0.480040000000     0.998590000000     0.283120000000     0.0169853  
C123     C      0.520770000000     0.002600000000     0.283150000000     0.0162353  
C124     C      0.542530000000     0.001910000000     0.247800000000    -0.066256   
C125     C      0.536540000000     0.996390000000     0.171330000000    -0.0264742  
C126     C      0.458460000000     0.997970000000     0.247690000000    -0.0664366  
C127     C      0.521040000000     0.999180000000     0.212380000000     0.016517   
C128     C      0.480120000000     0.999370000000     0.212320000000     0.0171577  
C129     C      0.823070000000     0.507910000000     0.536150000000    -0.0268407  
C130     C      0.670470000000     0.503010000000     0.465250000000    -0.0266353  
C131     C      0.670830000000     0.499730000000     0.537430000000    -0.0267083  
C132     C      0.711640000000     0.501610000000     0.521660000000     0.0165609  
C133     C      0.711440000000     0.501020000000     0.480590000000     0.0163937  
C134     C      0.746600000000     0.498770000000     0.458790000000    -0.0661699  
C135     C      0.822820000000     0.495650000000     0.464940000000    -0.0267464  
C136     C      0.747000000000     0.504050000000     0.543080000000    -0.0662984  
C137     C      0.781970000000     0.499230000000     0.480340000000     0.0164358  
C138     C      0.782140000000     0.503770000000     0.521160000000     0.0165985  
C139     C      0.169740000000     0.466530000000     0.507160000000    -0.0270009  
C140     C      0.322300000000     0.538150000000     0.509170000000    -0.0268515  
C141     C      0.322260000000     0.466540000000     0.499520000000    -0.0269508  
C142     C      0.281330000000     0.481880000000     0.502940000000     0.0164695  
C143     C      0.281350000000     0.522850000000     0.505730000000     0.0164198  
C144     C      0.246080000000     0.544610000000     0.504690000000    -0.0661002  
C145     C      0.169900000000     0.538380000000     0.499550000000    -0.0270675  
C146     C      0.246010000000     0.460170000000     0.503480000000    -0.0661427  
C147     C      0.210780000000     0.522940000000     0.503040000000     0.0165191  
C148     C      0.210730000000     0.481900000000     0.504650000000     0.0164973  
C149     C      0.672750000000     0.531480000000     0.009570000000    -0.0274167  
C150     C      0.824010000000     0.456160000000     0.008670000000    -0.0269769  
C151     C      0.824990000000     0.528070000000     0.002070000000    -0.0276506  
C152     C      0.783890000000     0.513370000000     0.005180000000     0.0170507  
C153     C      0.783110000000     0.472340000000     0.006270000000     0.0158249  
C154     C      0.747230000000     0.451490000000     0.004370000000    -0.0653994  
C155     C      0.670930000000     0.460010000000     0.999340000000    -0.0269157  
C156     C      0.749100000000     0.535860000000     0.006540000000    -0.0665742  
C157     C      0.712340000000     0.474100000000     0.003610000000     0.0157529  
C158     C      0.713320000000     0.515020000000     0.006800000000     0.0170236  
C159     C      0.323750000000     0.492610000000     0.036210000000    -0.0270984  
C160     C      0.171820000000     0.484590000000     0.963370000000    -0.026668   
C161     C      0.171440000000     0.491970000000     0.035220000000    -0.0274677  
C162     C      0.212430000000     0.490610000000     0.019940000000     0.0170646  
C163     C      0.212690000000     0.489020000000     0.978910000000     0.0160104  
C164     C      0.248030000000     0.492580000000     0.957430000000    -0.0656164  
C165     C      0.324000000000     0.501640000000     0.964550000000    -0.026807   
C166     C      0.247540000000     0.491560000000     0.041850000000    -0.0665454  
C167     C      0.283120000000     0.495590000000     0.979420000000     0.0160685  
C168     C      0.282920000000     0.493010000000     0.020400000000     0.0169033  
C169     C      0.975020000000     0.533450000000     0.673990000000    -0.0268196  
C170     C      0.018300000000     0.479490000000     0.827920000000    -0.0272511  
C171     C      0.968160000000     0.531300000000     0.827420000000    -0.0263677  
C172     C      0.980910000000     0.521200000000     0.786350000000     0.0155292  
C173     C      0.009450000000     0.491780000000     0.786920000000     0.0170064  
C174     C      0.026270000000     0.476870000000     0.752050000000    -0.0667953  
C175     C      0.025370000000     0.481850000000     0.675590000000    -0.026854   
C176     C      0.967530000000     0.537320000000     0.750430000000    -0.0654478  
C177     C      0.012970000000     0.492970000000     0.716280000000     0.0169194  
C178     C      0.984370000000     0.522340000000     0.715450000000     0.0156575  
C179     C      0.976760000000     0.475530000000     0.327390000000    -0.0270503  
C180     C      0.020820000000     0.528810000000     0.173170000000    -0.0267786  
C181     C      0.969770000000     0.477910000000     0.174840000000    -0.0269859  
C182     C      0.982440000000     0.488660000000     0.215510000000     0.0166495  
C183     C      0.011480000000     0.517580000000     0.214620000000     0.0159205  
C184     C      0.028670000000     0.532120000000     0.249570000000    -0.0657674  
C185     C      0.027960000000     0.526300000000     0.326350000000    -0.0266571  
C186     C      0.968920000000     0.472690000000     0.251320000000    -0.0664896  
C187     C      0.015140000000     0.516110000000     0.285450000000     0.0159053  
C188     C      0.986070000000     0.487220000000     0.286190000000     0.0166535  
C189     C      0.971570000000     0.830030000000     0.525570000000    -0.0267666  
C190     C      0.015430000000     0.676160000000     0.471230000000    -0.0269452  
C191     C      0.964570000000     0.677080000000     0.522350000000    -0.0265304  
C192     C      0.976770000000     0.717990000000     0.511670000000     0.0160616  
C193     C      0.005570000000     0.717370000000     0.482500000000     0.0165921  
C194     C      0.022370000000     0.752350000000     0.467800000000    -0.0663884  
C195     C      0.021810000000     0.828810000000     0.473840000000    -0.0268384  
C196     C      0.963300000000     0.753740000000     0.527930000000    -0.0659051  
C197     C      0.008840000000     0.788070000000     0.483970000000     0.0165638  
C198     C      0.980180000000     0.788750000000     0.513290000000     0.0161251  
C199     C      0.019150000000     0.176290000000     0.527670000000    -0.0271138  
C200     C      0.965430000000     0.328570000000     0.476670000000    -0.0266544  
C201     C      0.013840000000     0.329010000000     0.530120000000    -0.0270612  
C202     C      0.004250000000     0.287870000000     0.518250000000     0.0166441  
C203     C      0.976830000000     0.287500000000     0.487770000000     0.0158352  
C204     C      0.963810000000     0.251810000000     0.470900000000    -0.0656809  
C205     C      0.971310000000     0.175300000000     0.473710000000    -0.0268267  
C206     C      0.020040000000     0.252730000000     0.533690000000    -0.0664011  
C207     C      0.979690000000     0.216610000000     0.486300000000     0.0158834  
C208     C      0.006980000000     0.217100000000     0.516900000000     0.0166896  
C209     C      0.673600000000     0.978570000000     0.532640000000    -0.0261404  
C210     C      0.825220000000     0.028000000000     0.477520000000    -0.0262093  
C211     C      0.826200000000     0.977760000000     0.529470000000    -0.0262677  
C212     C      0.785100000000     0.989080000000     0.519580000000     0.016266   
C213     C      0.784620000000     0.017510000000     0.489920000000     0.0161278  
C214     C      0.749180000000     0.032520000000     0.474880000000    -0.0664746  
C215     C      0.673410000000     0.027880000000     0.479810000000    -0.0265738  
C216     C      0.750050000000     0.974290000000     0.536090000000    -0.066171   
C217     C      0.714230000000     0.017650000000     0.491230000000     0.0162196  
C218     C      0.714530000000     0.989450000000     0.521110000000     0.0162468  
C219     C      0.174450000000     0.977410000000     0.477980000000    -0.0266463  
C220     C      0.326600000000     0.028280000000     0.530610000000    -0.0262741  
C221     C      0.326440000000     0.976480000000     0.480240000000    -0.026873   
C222     C      0.285630000000     0.987720000000     0.490990000000     0.0171858  
C223     C      0.285550000000     0.017350000000     0.519440000000     0.0151103  
C224     C      0.250100000000     0.033560000000     0.533590000000    -0.0654105  
C225     C      0.173790000000     0.030280000000     0.527220000000    -0.0263706  
C226     C      0.250520000000     0.972360000000     0.475390000000    -0.0670038  
C227     C      0.214900000000     0.018290000000     0.517810000000     0.0151399  
C228     C      0.215170000000     0.988390000000     0.489650000000     0.0171505  
C229     C      0.037800000000     0.823170000000     0.999120000000    -0.0268948  
C230     C      0.967860000000     0.669770000000     0.002890000000    -0.0272993  
C231     C      0.039710000000     0.669810000000     0.007300000000    -0.0268713  
C232     C      0.024050000000     0.710990000000     0.005820000000     0.0161653  
C233     C      0.983130000000     0.710760000000     0.005890000000     0.016917   
C234     C      0.961250000000     0.745950000000     0.008050000000    -0.0664642  
C235     C      0.966810000000     0.822440000000     0.011030000000    -0.0270994  
C236     C      0.045280000000     0.746650000000     0.003620000000    -0.0657303  
C237     C      0.982540000000     0.781530000000     0.007950000000     0.0169165  
C238     C      0.023240000000     0.781910000000     0.003720000000     0.0161575  
C239     C      0.005820000000     0.169010000000     0.035660000000    -0.0272656  
C240     C      0.011040000000     0.322240000000     0.964080000000    -0.0268586  
C241     C      0.000460000000     0.322050000000     0.035520000000    -0.0271639  
C242     C      0.003980000000     0.281010000000     0.020180000000     0.0166348  
C243     C      0.007560000000     0.281060000000     0.979280000000     0.0163506  
C244     C      0.006790000000     0.245650000000     0.957490000000    -0.0658807  
C245     C      0.000920000000     0.169150000000     0.963600000000    -0.0270732  
C246     C      0.003460000000     0.245560000000     0.041850000000    -0.0662167  
C247     C      0.004320000000     0.210200000000     0.979100000000     0.016412   
C248     C      0.004670000000     0.210150000000     0.020160000000     0.0166571  
C249     C      0.673470000000     0.028260000000     0.965440000000    -0.0266043  
C250     C      0.825190000000     0.977200000000     0.019340000000    -0.027083   
C251     C      0.826750000000     0.031050000000     0.971250000000    -0.026443   
C252     C      0.785340000000     0.018960000000     0.979870000000     0.0147948  
C253     C      0.784690000000     0.988390000000     0.007280000000     0.0173618  
C254     C      0.749210000000     0.971610000000     0.020340000000    -0.0671527  
C255     C      0.673370000000     0.974740000000     0.013930000000    -0.0272815  
C256     C      0.750190000000     0.034380000000     0.963890000000    -0.0649561  
C257     C      0.714240000000     0.986990000000     0.004470000000     0.0174557  
C258     C      0.714550000000     0.017480000000     0.976980000000     0.0148712  
C259     C      0.174760000000     0.031130000000     0.020530000000    -0.0262851  
C260     C      0.325930000000     0.980020000000     0.964630000000    -0.0266015  
C261     C      0.327250000000     0.031220000000     0.015570000000    -0.0267044  
C262     C      0.286050000000     0.020970000000     0.005090000000     0.015517   
C263     C      0.285250000000     0.991710000000     0.976270000000     0.0168724  
C264     C      0.249500000000     0.976020000000     0.962490000000    -0.0665899  
C265     C      0.173650000000     0.979050000000     0.970480000000    -0.0268283  
C266     C      0.251230000000     0.036390000000     0.021510000000    -0.0656413  
C267     C      0.214710000000     0.991330000000     0.979020000000     0.0169115  
C268     C      0.215460000000     0.020800000000     0.007620000000     0.0153796  
C269     C      0.036400000000     0.982480000000     0.826730000000    -0.0262173  
C270     C      0.965080000000     0.994450000000     0.674310000000    -0.0265465  
C271     C      0.036520000000     0.003530000000     0.674720000000    -0.0272166  
C272     C      0.021380000000     0.996630000000     0.715450000000     0.0166146  
C273     C      0.980510000000     0.994440000000     0.715330000000     0.0170596  
C274     C      0.958860000000     0.992890000000     0.750620000000    -0.0666397  
C275     C      0.965090000000     0.992500000000     0.826950000000    -0.0270003  
C276     C      0.043030000000     0.992380000000     0.750650000000    -0.0658169  
C277     C      0.980470000000     0.991060000000     0.785920000000     0.017316   
C278     C      0.021310000000     0.988370000000     0.785840000000     0.0161945  
C279     C      0.963060000000     0.986090000000     0.173610000000    -0.0264254  
C280     C      0.035120000000     0.992550000000     0.326330000000    -0.0267062  
C281     C      0.963850000000     0.002700000000     0.326200000000    -0.0277762  
C282     C      0.978800000000     0.996550000000     0.285280000000     0.0166959  
C283     C      0.019610000000     0.993590000000     0.285250000000     0.0166676  
C284     C      0.041110000000     0.992470000000     0.249790000000    -0.0662697  
C285     C      0.034620000000     0.993930000000     0.173340000000    -0.0269357  
C286     C      0.956980000000     0.993860000000     0.250010000000    -0.0659235  
C287     C      0.019360000000     0.992060000000     0.214460000000     0.016888   
C288     C      0.978470000000     0.990440000000     0.214620000000     0.0162296  
H1       H      0.508980000000     0.444370000000     0.669670000000     0.0494385  
H2       H      0.438330000000     0.524660000000     0.671930000000     0.0484934  
H3       H      0.449320000000     0.559170000000     0.753630000000     0.0474596  
H4       H      0.548020000000     0.448470000000     0.749640000000     0.0475046  
H5       H      0.519490000000     0.446450000000     0.833290000000     0.0491753  
H6       H      0.487440000000     0.562720000000     0.834210000000     0.0488473  
H7       H      0.549900000000     0.479980000000     0.667150000000     0.0503819  
H8       H      0.478600000000     0.561050000000     0.669570000000     0.0494868  
H9       H      0.446870000000     0.526660000000     0.835800000000     0.0503771  
H10      H      0.559050000000     0.483640000000     0.831510000000     0.0485676  
H11      H      0.508960000000     0.560260000000     0.334690000000     0.0492878  
H12      H      0.434980000000     0.483270000000     0.332760000000     0.0483097  
H13      H      0.444500000000     0.447830000000     0.251110000000     0.0474652  
H14      H      0.547930000000     0.554130000000     0.254720000000     0.0474765  
H15      H      0.519820000000     0.556700000000     0.170810000000     0.0489953  
H16      H      0.482740000000     0.441940000000     0.170980000000     0.0489459  
H17      H      0.548410000000     0.523000000000     0.337080000000     0.050461   
H18      H      0.473500000000     0.445020000000     0.335010000000     0.0494149  
H19      H      0.443880000000     0.479830000000     0.168610000000     0.0502667  
H20      H      0.557800000000     0.517930000000     0.173370000000     0.0485382  
H21      H      0.446210000000     0.667720000000     0.475950000000     0.0468234  
H22      H      0.552530000000     0.668590000000     0.462340000000     0.0507151  
H23      H      0.576620000000     0.752630000000     0.491870000000     0.0473914  
H24      H      0.428550000000     0.751640000000     0.490020000000     0.0472332  
H25      H      0.453580000000     0.832380000000     0.452500000000     0.0501633  
H26      H      0.550950000000     0.834200000000     0.522380000000     0.0517263  
H27      H      0.453440000000     0.673510000000     0.529570000000     0.0511153  
H28      H      0.559950000000     0.671060000000     0.516200000000     0.0460508  
H29      H      0.558880000000     0.835300000000     0.468560000000     0.0461142  
H30      H      0.444170000000     0.834600000000     0.506060000000     0.0466445  
H31      H      0.560180000000     0.336630000000     0.480060000000     0.0460304  
H32      H      0.453400000000     0.334790000000     0.467610000000     0.0518619  
H33      H      0.429550000000     0.252540000000     0.497620000000     0.0474617  
H34      H      0.577610000000     0.252220000000     0.494480000000     0.0471916  
H35      H      0.551190000000     0.172220000000     0.456330000000     0.0501026  
H36      H      0.454210000000     0.170320000000     0.526790000000     0.0517612  
H37      H      0.553250000000     0.332200000000     0.533860000000     0.0500705  
H38      H      0.446920000000     0.333660000000     0.521630000000     0.0467645  
H39      H      0.445620000000     0.170970000000     0.473050000000     0.0461976  
H40      H      0.560540000000     0.168250000000     0.509790000000     0.0464133  
H41      H      0.552750000000     0.831290000000     0.023710000000     0.0488953  
H42      H      0.474620000000     0.832140000000     0.949300000000     0.0498765  
H43      H      0.439010000000     0.751780000000     0.956130000000     0.0474079  
H44      H      0.546760000000     0.749950000000     0.058040000000     0.047318   
H45      H      0.549430000000     0.668530000000     0.024050000000     0.0498197  
H46      H      0.434080000000     0.668960000000     0.990230000000     0.0487513  
H47      H      0.515130000000     0.833770000000     0.062840000000     0.04867    
H48      H      0.437670000000     0.834720000000     0.989050000000     0.0491292  
H49      H      0.470720000000     0.669610000000     0.950110000000     0.0491549  
H50      H      0.511970000000     0.667790000000     0.063390000000     0.048978   
H51      H      0.473080000000     0.333630000000     0.059220000000     0.0492475  
H52      H      0.547090000000     0.333800000000     0.980250000000     0.0502093  
H53      H      0.544870000000     0.251450000000     0.949850000000     0.0474823  
H54      H      0.443550000000     0.249850000000     0.058250000000     0.0472638  
H55      H      0.482000000000     0.168890000000     0.064070000000     0.0484322  
H56      H      0.515740000000     0.168640000000     0.948300000000     0.0501811  
H57      H      0.434130000000     0.331300000000     0.021410000000     0.048397   
H58      H      0.507090000000     0.331540000000     0.943550000000     0.0488131  
H59      H      0.554760000000     0.170960000000     0.986040000000     0.0488296  
H60      H      0.441950000000     0.166480000000     0.027440000000     0.0491898  
H61      H      0.518540000000     0.943610000000     0.829390000000     0.0471302  
H62      H      0.534600000000     0.050000000000     0.828000000000     0.0505399  
H63      H      0.502250000000     0.075390000000     0.746700000000     0.0473662  
H64      H      0.496900000000     0.926860000000     0.746610000000     0.0475829  
H65      H      0.530540000000     0.949860000000     0.665120000000     0.0510088  
H66      H      0.468150000000     0.052500000000     0.665380000000     0.0508062  
H67      H      0.464990000000     0.952150000000     0.828110000000     0.0507352  
H68      H      0.481070000000     0.058620000000     0.829490000000     0.0469938  
H69      H      0.522170000000     0.057220000000     0.663900000000     0.0471949  
H70      H      0.476510000000     0.945230000000     0.663830000000     0.0471769  
H71      H      0.452140000000     0.965700000000     0.329580000000     0.050912   
H72      H      0.557910000000     0.983890000000     0.331070000000     0.0471306  
H73      H      0.574460000000     0.003480000000     0.247850000000     0.0472955  
H74      H      0.426520000000     0.996550000000     0.247640000000     0.0475022  
H75      H      0.444940000000     0.975700000000     0.165130000000     0.0471486  
H76      H      0.556480000000     0.021720000000     0.164780000000     0.0465714  
H77      H      0.442580000000     0.019290000000     0.329970000000     0.0464392  
H78      H      0.548280000000     0.037400000000     0.328490000000     0.0508538  
H79      H      0.551700000000     0.967530000000     0.166730000000     0.0503427  
H80      H      0.449340000000     0.029950000000     0.166160000000     0.0511348  
H81      H      0.664700000000     0.525650000000     0.556810000000     0.0469052  
H82      H      0.665560000000     0.531390000000     0.449250000000     0.050629   
H83      H      0.746440000000     0.496820000000     0.426760000000     0.0472794  
H84      H      0.747160000000     0.506120000000     0.575100000000     0.0473792  
H85      H      0.827790000000     0.538100000000     0.548470000000     0.0507509  
H86      H      0.827860000000     0.465510000000     0.452630000000     0.050502   
H87      H      0.665970000000     0.471330000000     0.553400000000     0.0506076  
H88      H      0.664040000000     0.477070000000     0.445990000000     0.0467989  
H89      H      0.828820000000     0.518980000000     0.442480000000     0.0469025  
H90      H      0.829630000000     0.484620000000     0.558500000000     0.0469985  
H91      H      0.327020000000     0.453110000000     0.469820000000     0.0508346  
H92      H      0.328640000000     0.559780000000     0.485160000000     0.0464856  
H93      H      0.246110000000     0.576700000000     0.505050000000     0.0472065  
H94      H      0.245980000000     0.428090000000     0.502940000000     0.047227   
H95      H      0.163680000000     0.445620000000     0.482440000000     0.0466768  
H96      H      0.163260000000     0.559250000000     0.524150000000     0.0466945  
H97      H      0.328620000000     0.445010000000     0.523610000000     0.0464132  
H98      H      0.327150000000     0.551440000000     0.538920000000     0.0505817  
H99      H      0.165470000000     0.552620000000     0.470180000000     0.0508208  
H100     H      0.164550000000     0.452360000000     0.536440000000     0.0506535  
H101     H      0.831900000000     0.548430000000     0.027030000000     0.0470937  
H102     H      0.828960000000     0.441590000000     0.037780000000     0.0502416  
H103     H      0.746480000000     0.419440000000     0.003340000000     0.0473088  
H104     H      0.749850000000     0.567930000000     0.007150000000     0.0473783  
H105     H      0.667750000000     0.544700000000     0.039320000000     0.0507895  
H106     H      0.666280000000     0.446910000000     0.969480000000     0.05065    
H107     H      0.829680000000     0.542780000000     0.972960000000     0.0515944  
H108     H      0.829760000000     0.435430000000     0.983720000000     0.0465032  
H109     H      0.663520000000     0.438510000000     0.023160000000     0.0466808  
H110     H      0.667530000000     0.553490000000     0.985620000000     0.0469671  
H111     H      0.165760000000     0.520920000000     0.049890000000     0.051832   
H112     H      0.164830000000     0.508910000000     0.942270000000     0.0468315  
H113     H      0.248200000000     0.493200000000     0.925360000000     0.0472836  
H114     H      0.247340000000     0.491420000000     0.073940000000     0.0474442  
H115     H      0.328180000000     0.517290000000     0.057580000000     0.0468215  
H116     H      0.332150000000     0.477890000000     0.943230000000     0.0468624  
H117     H      0.165830000000     0.466810000000     0.055720000000     0.0465748  
H118     H      0.167880000000     0.455030000000     0.949390000000     0.0499058  
H119     H      0.327060000000     0.531510000000     0.951020000000     0.0502741  
H120     H      0.330340000000     0.463430000000     0.050020000000     0.0511656  
H121     H      0.936240000000     0.524800000000     0.831520000000     0.0482641  
H122     H      0.010870000000     0.447680000000     0.832230000000     0.0499186  
H123     H      0.048440000000     0.453770000000     0.752750000000     0.0475343  
H124     H      0.945080000000     0.560150000000     0.749720000000     0.0473403  
H125     H      0.943400000000     0.527430000000     0.667470000000     0.0500337  
H126     H      0.057150000000     0.488660000000     0.670950000000     0.0485213  
H127     H      0.975000000000     0.562790000000     0.834250000000     0.0485583  
H128     H      0.049820000000     0.485440000000     0.835000000000     0.0502966  
H129     H      0.018930000000     0.450050000000     0.669880000000     0.0492386  
H130     H      0.982580000000     0.565030000000     0.668500000000     0.0489105  
H131     H      0.938100000000     0.485240000000     0.170300000000     0.0485563  
H132     H      0.013550000000     0.560490000000     0.167820000000     0.0487027  
H133     H      0.051420000000     0.554650000000     0.248860000000     0.0473761  
H134     H      0.946280000000     0.450040000000     0.252020000000     0.0474466  
H135     H      0.945280000000     0.481980000000     0.334180000000     0.0502431  
H136     H      0.059650000000     0.518910000000     0.330700000000     0.048425   
H137     H      0.975680000000     0.446010000000     0.169060000000     0.0498345  
H138     H      0.052360000000     0.522490000000     0.166520000000     0.0499601  
H139     H      0.022040000000     0.558080000000     0.332680000000     0.0491366  
H140     H      0.983800000000     0.443720000000     0.332260000000     0.0489254  
H141     H      0.932910000000     0.672220000000     0.515140000000     0.0485698  
H142     H      0.008190000000     0.670770000000     0.439560000000     0.0487871  
H143     H      0.044980000000     0.751780000000     0.445120000000     0.047409   
H144     H      0.941020000000     0.754290000000     0.550940000000     0.047381   
H145     H      0.940150000000     0.837440000000     0.519520000000     0.0494174  
H146     H      0.053760000000     0.832650000000     0.480360000000     0.0487739  
H147     H      0.970700000000     0.671190000000     0.554180000000     0.0492013  
H148     H      0.047060000000     0.669920000000     0.477500000000     0.0501613  
H149     H      0.015080000000     0.835540000000     0.442310000000     0.0494035  
H150     H      0.979030000000     0.834410000000     0.557350000000     0.0493507  
H151     H      0.045750000000     0.335090000000     0.525310000000     0.0500425  
H152     H      0.973130000000     0.334540000000     0.445210000000     0.0491034  
H153     H      0.942590000000     0.251450000000     0.446900000000     0.0472814  
H154     H      0.041570000000     0.253110000000     0.557420000000     0.047422   
H155     H      0.051340000000     0.172220000000     0.522660000000     0.0491141  
H156     H      0.939600000000     0.168120000000     0.478350000000     0.0491787  
H157     H      0.005220000000     0.334310000000     0.561460000000     0.0488231  
H158     H      0.933480000000     0.333590000000     0.482320000000     0.0485776  
H159     H      0.980140000000     0.170790000000     0.442300000000     0.0492091  
H160     H      0.010930000000     0.169680000000     0.558870000000     0.049607   
H161     H      0.831210000000     0.945830000000     0.523090000000     0.0490788  
H162     H      0.829830000000     0.020740000000     0.445720000000     0.0485881  
H163     H      0.748810000000     0.054450000000     0.451450000000     0.0471696  
H164     H      0.750420000000     0.952010000000     0.559170000000     0.0472707  
H165     H      0.668280000000     0.946490000000     0.527360000000     0.0486899  
H166     H      0.667420000000     0.059740000000     0.485690000000     0.0488554  
H167     H      0.832870000000     0.984950000000     0.560910000000     0.0489342  
H168     H      0.831280000000     0.059810000000     0.483630000000     0.0489225  
H169     H      0.668160000000     0.020290000000     0.448180000000     0.0500103  
H170     H      0.667830000000     0.986740000000     0.564010000000     0.0485534  
H171     H      0.331910000000     0.982510000000     0.448310000000     0.0500792  
H172     H      0.332330000000     0.059990000000     0.523800000000     0.0485833  
H173     H      0.249910000000     0.056920000000     0.555590000000     0.0470342  
H174     H      0.250720000000     0.949220000000     0.453160000000     0.0473503  
H175     H      0.169700000000     0.983070000000     0.445880000000     0.0487504  
H176     H      0.167230000000     0.024860000000     0.559040000000     0.048842   
H177     H      0.332040000000     0.944870000000     0.487640000000     0.0488054  
H178     H      0.332130000000     0.021590000000     0.562380000000     0.0484679  
H179     H      0.168830000000     0.061820000000     0.519120000000     0.0489534  
H180     H      0.168380000000     0.945950000000     0.485680000000     0.0493019  
H181     H      0.055040000000     0.664380000000     0.035910000000     0.0503594  
H182     H      0.948280000000     0.662870000000     0.028420000000     0.0471073  
H183     H      0.929310000000     0.745650000000     0.009450000000     0.0473569  
H184     H      0.077180000000     0.746950000000     0.001650000000     0.047433   
H185     H      0.059810000000     0.830310000000     0.022490000000     0.0468002  
H186     H      0.944350000000     0.827960000000     0.987640000000     0.0470138  
H187     H      0.059510000000     0.664040000000     0.981670000000     0.0466448  
H188     H      0.952270000000     0.665500000000     0.974210000000     0.0513918  
H189     H      0.954500000000     0.827760000000     0.041110000000     0.0506672  
H190     H      0.050320000000     0.827580000000     0.968990000000     0.0511614  
H191     H      0.024320000000     0.328430000000     0.057230000000     0.0468285  
H192     H      0.040870000000     0.327320000000     0.951310000000     0.050295   
H193     H      0.007840000000     0.245690000000     0.925420000000     0.0474465  
H194     H      0.001980000000     0.245530000000     0.073900000000     0.0475297  
H195     H      0.034330000000     0.163340000000     0.050980000000     0.0509983  
H196     H      0.972170000000     0.165030000000     0.948230000000     0.0508342  
H197     H      0.970770000000     0.326740000000     0.048790000000     0.0512744  
H198     H      0.987440000000     0.328450000000     0.942030000000     0.0471298  
H199     H      0.026140000000     0.162160000000     0.943700000000     0.0471395  
H200     H      0.980290000000     0.163420000000     0.055590000000     0.0471846  
H201     H      0.831780000000     0.062340000000     0.980200000000     0.0484989  
H202     H      0.829470000000     0.982380000000     0.051590000000     0.0490277  
H203     H      0.748840000000     0.947790000000     0.041830000000     0.047476   
H204     H      0.750570000000     0.058270000000     0.942480000000     0.0470871  
H205     H      0.667210000000     0.059640000000     0.973250000000     0.0489435  
H206     H      0.668420000000     0.943340000000     0.005250000000     0.0489614  
H207     H      0.833670000000     0.026420000000     0.939380000000     0.0487749  
H208     H      0.831230000000     0.945810000000     0.011320000000     0.0498399  
H209     H      0.667180000000     0.979450000000     0.045940000000     0.0502553  
H210     H      0.668590000000     0.022660000000     0.933360000000     0.0483887  
H211     H      0.332840000000     0.024860000000     0.047410000000     0.0500942  
H212     H      0.330970000000     0.948080000000     0.970930000000     0.0489094  
H213     H      0.248790000000     0.952780000000     0.940380000000     0.0474093  
H214     H      0.251970000000     0.059030000000     0.044240000000     0.0471701  
H215     H      0.170980000000     0.025160000000     0.052700000000     0.0484453  
H216     H      0.166160000000     0.985140000000     0.938990000000     0.0491458  
H217     H      0.333490000000     0.062760000000     0.008360000000     0.0487316  
H218     H      0.331380000000     0.987040000000     0.932920000000     0.0485653  
H219     H      0.169440000000     0.947220000000     0.977890000000     0.0499949  
H220     H      0.167930000000     0.062510000000     0.013220000000     0.0485205  
H221     H      0.057930000000     0.980030000000     0.666250000000     0.0465116  
H222     H      0.951450000000     0.965300000000     0.667290000000     0.0514727  
H223     H      0.926890000000     0.993320000000     0.750620000000     0.0474715  
H224     H      0.075000000000     0.992410000000     0.750690000000     0.0473248  
H225     H      0.049120000000     0.952310000000     0.830140000000     0.0500545  
H226     H      0.951590000000     0.021940000000     0.832930000000     0.0517546  
H227     H      0.049870000000     0.033530000000     0.672310000000     0.0502941  
H228     H      0.943780000000     0.019130000000     0.669930000000     0.0459124  
H229     H      0.943690000000     0.968090000000     0.832220000000     0.0458789  
H230     H      0.058340000000     0.005800000000     0.834330000000     0.0460687  
H231     H      0.942200000000     0.979260000000     0.334190000000     0.0469101  
H232     H      0.048270000000     0.963070000000     0.332830000000     0.0509402  
H233     H      0.073080000000     0.992190000000     0.249690000000     0.0474086  
H234     H      0.925020000000     0.994640000000     0.250090000000     0.0473449  
H235     H      0.949300000000     0.956460000000     0.169540000000     0.0501247  
H236     H      0.048950000000     0.023070000000     0.167870000000     0.0514227  
H237     H      0.950800000000     0.032780000000     0.329260000000     0.0506676  
H238     H      0.056840000000     0.016790000000     0.331110000000     0.0461908  
H239     H      0.055300000000     0.969010000000     0.167500000000     0.0462857  
H240     H      0.941900000000     0.010310000000     0.166650000000     0.0462815  
N1       N      0.503470000000     0.504440000000     0.852370000000    -0.156363   
N2       N      0.493380000000     0.502590000000     0.650920000000    -0.155833   
N3       N      0.501580000000     0.499200000000     0.152320000000    -0.156838   
N4       N      0.491060000000     0.502740000000     0.353520000000    -0.156377   
N5       N      0.501580000000     0.852700000000     0.487800000000    -0.156772   
N6       N      0.503110000000     0.651720000000     0.497560000000    -0.156716   
N7       N      0.502720000000     0.151870000000     0.491040000000    -0.156818   
N8       N      0.503320000000     0.352870000000     0.501530000000    -0.156663   
N9       N      0.491910000000     0.650120000000     0.006230000000    -0.156623   
N10      N      0.496060000000     0.851550000000     0.005410000000    -0.156718   
N11      N      0.498970000000     0.150160000000     0.006270000000    -0.15722    
N12      N      0.490270000000     0.351160000000     0.001060000000    -0.15729    
N13      N      0.499350000000     0.001230000000     0.645980000000    -0.156137   
N14      N      0.499810000000     0.001100000000     0.847320000000    -0.156725   
N15      N      0.500640000000     0.998740000000     0.147160000000    -0.156769   
N16      N      0.500160000000     0.001920000000     0.348320000000    -0.156714   
N17      N      0.846980000000     0.502000000000     0.500420000000    -0.157189   
N18      N      0.646620000000     0.501460000000     0.501470000000    -0.157549   
N19      N      0.145740000000     0.502470000000     0.503010000000    -0.15657    
N20      N      0.346350000000     0.502350000000     0.504240000000    -0.15704    
N21      N      0.647710000000     0.496490000000     0.003890000000    -0.155925   
N22      N      0.848650000000     0.491750000000     0.004940000000    -0.155826   
N23      N      0.347920000000     0.498660000000     0.000690000000    -0.156644   
N24      N      0.147530000000     0.487940000000     0.999210000000    -0.156618   
N25      N      0.000660000000     0.507250000000     0.650590000000    -0.156842   
N26      N      0.992290000000     0.504720000000     0.851860000000    -0.15676    
N27      N      0.002950000000     0.500800000000     0.351070000000    -0.156852   
N28      N      0.994840000000     0.502980000000     0.149810000000    -0.156679   
N29      N      0.997880000000     0.853560000000     0.500270000000    -0.15681    
N30      N      0.989810000000     0.652440000000     0.497050000000    -0.157131   
N31      N      0.996290000000     0.151610000000     0.500220000000    -0.156168   
N32      N      0.989540000000     0.353010000000     0.503290000000    -0.156724   
N33      N      0.649470000000     0.002720000000     0.505840000000    -0.158176   
N34      N      0.849720000000     0.002610000000     0.502710000000    -0.158361   
N35      N      0.150040000000     0.004060000000     0.501980000000    -0.157559   
N36      N      0.350620000000     0.002550000000     0.505160000000    -0.157602   
N37      N      0.001900000000     0.846970000000     0.004380000000    -0.156334   
N38      N      0.003830000000     0.645630000000     0.004430000000    -0.156494   
N39      N      0.002670000000     0.144900000000     0.999640000000    -0.155789   
N40      N      0.005370000000     0.346330000000     0.999810000000    -0.15637    
N41      N      0.649250000000     0.001320000000     0.989510000000    -0.156416   
N42      N      0.850120000000     0.004080000000     0.996110000000    -0.156851   
N43      N      0.150160000000     0.004220000000     0.996990000000    -0.157539   
N44      N      0.350690000000     0.004790000000     0.990250000000    -0.157154   
N45      N      0.000700000000     0.986760000000     0.850940000000    -0.157354   
N46      N      0.000690000000     0.000840000000     0.650490000000    -0.157556   
N47      N      0.998780000000     0.989730000000     0.149310000000    -0.156626   
N48      N      0.999670000000     0.999110000000     0.350380000000    -0.156379   
O1       O      0.000240000000     0.996020000000     0.999930000000    -0.369793   
O2       O      0.970800000000     0.974940000000     0.089790000000    -0.300425   
O3       O      0.091080000000     0.025030000000     0.022270000000    -0.30088    
O4       O      0.028680000000     0.905440000000     0.984630000000    -0.301638   
O5       O      0.026030000000     0.010480000000     0.091540000000    -0.302934   
O6       O      0.972870000000     0.905840000000     0.019500000000    -0.300651   
O7       O      0.092340000000     0.976350000000     0.978300000000    -0.306082   
O8       O      0.975540000000     0.010840000000     0.908260000000    -0.304314   
O9       O      0.015470000000     0.085920000000     0.029610000000    -0.300072   
O10      O      0.027480000000     0.970700000000     0.910530000000    -0.302073   
O11      O      0.987560000000     0.086350000000     0.969810000000    -0.299915   
O12      O      0.910400000000     0.026400000000     0.975580000000    -0.30047    
O13      O      0.907150000000     0.976640000000     0.018320000000    -0.303648   
O14      O      0.999850000000     0.002610000000     0.500490000000    -0.368717   
O15      O      0.091860000000     0.978980000000     0.479620000000    -0.303197   
O16      O      0.019560000000     0.093370000000     0.524940000000    -0.300776   
O17      O      0.972610000000     0.019260000000     0.408630000000    -0.301638   
O18      O      0.091050000000     0.028510000000     0.522750000000    -0.303428   
O19      O      0.027180000000     0.982760000000     0.409530000000    -0.301725   
O20      O      0.976630000000     0.092300000000     0.474900000000    -0.300721   
O21      O      0.908560000000     0.978890000000     0.524230000000    -0.305786   
O22      O      0.027000000000     0.021490000000     0.592080000000    -0.302363   
O23      O      0.907870000000     0.025670000000     0.478260000000    -0.304364   
O24      O      0.973780000000     0.983140000000     0.591700000000    -0.304661   
O25      O      0.976970000000     0.912580000000     0.524770000000    -0.303208   
O26      O      0.022050000000     0.911980000000     0.476780000000    -0.301502   
O27      O      0.998140000000     0.495970000000     0.000850000000    -0.370309   
O28      O      0.018390000000     0.405940000000     0.971050000000    -0.300888   
O29      O      0.973670000000     0.475800000000     0.091800000000    -0.300946   
O30      O      0.090060000000     0.507740000000     0.027440000000    -0.303408   
O31      O      0.985660000000     0.404120000000     0.028090000000    -0.301927   
O32      O      0.088050000000     0.475150000000     0.970360000000    -0.300775   
O33      O      0.020060000000     0.522400000000     0.090540000000    -0.302397   
O34      O      0.973330000000     0.588090000000     0.988410000000    -0.30312    
O35      O      0.908260000000     0.463600000000     0.019750000000    -0.297919   
O36      O      0.032060000000     0.585670000000     0.017630000000    -0.299844   
O37      O      0.906340000000     0.521060000000     0.987650000000    -0.302265   
O38      O      0.969730000000     0.525990000000     0.912360000000    -0.29801    
O39      O      0.015440000000     0.478890000000     0.908950000000    -0.30702    
O40      O      0.996320000000     0.502810000000     0.500810000000    -0.368929   
O41      O      0.014640000000     0.411310000000     0.525380000000    -0.303351   
O42      O      0.905570000000     0.485620000000     0.472040000000    -0.302746   
O43      O      0.975960000000     0.527850000000     0.591710000000    -0.304563   
O44      O      0.969330000000     0.412240000000     0.477800000000    -0.300929   
O45      O      0.022310000000     0.481290000000     0.592000000000    -0.300376   
O46      O      0.905340000000     0.519510000000     0.528450000000    -0.303208   
O47      O      0.015970000000     0.594020000000     0.476820000000    -0.304381   
O48      O      0.977410000000     0.479590000000     0.409360000000    -0.304613   
O49      O      0.968360000000     0.593480000000     0.522060000000    -0.301563   
O50      O      0.024810000000     0.525070000000     0.410310000000    -0.300348   
O51      O      0.087530000000     0.530980000000     0.485490000000    -0.301807   
O52      O      0.086900000000     0.474120000000     0.518690000000    -0.301487   
O53      O      0.499890000000     0.000900000000     0.997210000000    -0.369452   
O54      O      0.409440000000     0.979120000000     0.969120000000    -0.300331   
O55      O      0.471280000000     0.014370000000     0.088770000000    -0.303377   
O56      O      0.522630000000     0.910660000000     0.024700000000    -0.300299   
O57      O      0.408860000000     0.024120000000     0.017080000000    -0.305209   
O58      O      0.475640000000     0.909710000000     0.978740000000    -0.303675   
O59      O      0.529800000000     0.984710000000     0.088110000000    -0.301818   
O60      O      0.589670000000     0.026000000000     0.969500000000    -0.2997     
O61      O      0.476720000000     0.090080000000     0.027510000000    -0.301924   
O62      O      0.591580000000     0.978280000000     0.014810000000    -0.30295    
O63      O      0.520750000000     0.092890000000     0.978800000000    -0.304357   
O64      O      0.515520000000     0.029980000000     0.906080000000    -0.301663   
O65      O      0.483700000000     0.972390000000     0.906060000000    -0.301537   
O66      O      0.500210000000     0.002180000000     0.497250000000    -0.371294   
O67      O      0.410200000000     0.026190000000     0.526110000000    -0.301501   
O68      O      0.472270000000     0.984700000000     0.407060000000    -0.30151    
O69      O      0.529020000000     0.092130000000     0.474260000000    -0.301286   
O70      O      0.408070000000     0.981180000000     0.478320000000    -0.305462   
O71      O      0.475950000000     0.094280000000     0.512840000000    -0.303338   
O72      O      0.527970000000     0.019750000000     0.406920000000    -0.301836   
O73      O      0.590030000000     0.979500000000     0.527510000000    -0.301928   
O74      O      0.473160000000     0.912050000000     0.473390000000    -0.301203   
O75      O      0.592120000000     0.022350000000     0.477800000000    -0.307184   
O76      O      0.526730000000     0.910390000000     0.511310000000    -0.303039   
O77      O      0.513540000000     0.971530000000     0.587190000000    -0.300035   
O78      O      0.485840000000     0.031440000000     0.587320000000    -0.300462   
O79      O      0.497810000000     0.500570000000     0.002320000000    -0.367733   
O80      O      0.406520000000     0.516730000000     0.973020000000    -0.30117    
O81      O      0.469810000000     0.410570000000     0.025710000000    -0.301858   
O82      O      0.524440000000     0.478260000000     0.911190000000    -0.299349   
O83      O      0.406420000000     0.483850000000     0.029980000000    -0.30273    
O84      O      0.478860000000     0.525610000000     0.911150000000    -0.303352   
O85      O      0.515470000000     0.409130000000     0.978490000000    -0.304349   
O86      O      0.589700000000     0.526530000000     0.019990000000    -0.300227   
O87      O      0.477050000000     0.477810000000     0.093690000000    -0.304808   
O88      O      0.588470000000     0.470380000000     0.985640000000    -0.300293   
O89      O      0.524590000000     0.523120000000     0.093330000000    -0.299921   
O90      O      0.518560000000     0.591630000000     0.025810000000    -0.303054   
O91      O      0.470040000000     0.591170000000     0.981430000000    -0.300179   
O92      O      0.496470000000     0.502310000000     0.502180000000    -0.370542   
O93      O      0.404680000000     0.474580000000     0.485960000000    -0.302518   
O94      O      0.472630000000     0.528560000000     0.591860000000    -0.297936   
O95      O      0.528950000000     0.412450000000     0.520570000000    -0.299783   
O96      O      0.405150000000     0.530330000000     0.520680000000    -0.302162   
O97      O      0.474040000000     0.410670000000     0.484590000000    -0.304325   
O98      O      0.515650000000     0.478580000000     0.592310000000    -0.302248   
O99      O      0.588010000000     0.514980000000     0.471750000000    -0.303936   
O100     O      0.474350000000     0.594640000000     0.517930000000    -0.303109   
O101     O      0.588130000000     0.488550000000     0.531750000000    -0.303591   
O102     O      0.529120000000     0.591500000000     0.481810000000    -0.300732   
O103     O      0.515250000000     0.525240000000     0.411860000000    -0.303918   
O104     O      0.469930000000     0.477460000000     0.412720000000    -0.298889   
Zn1      Zn     0.963630000000     0.964160000000     0.030940000000     0.451087   
Zn2      Zn     0.032360000000     0.028480000000     0.035020000000     0.449346   
Zn3      Zn     0.035960000000     0.962830000000     0.969320000000     0.455349   
Zn4      Zn     0.969340000000     0.029270000000     0.964480000000     0.450441   
Zn5      Zn     0.034340000000     0.969980000000     0.467570000000     0.451128   
Zn6      Zn     0.033270000000     0.035740000000     0.534150000000     0.450957   
Zn7      Zn     0.965440000000     0.034090000000     0.466280000000     0.450982   
Zn8      Zn     0.966020000000     0.970300000000     0.534260000000     0.456237   
Zn9      Zn     0.029170000000     0.464730000000     0.964000000000     0.454223   
Zn10     Zn     0.967040000000     0.460610000000     0.034130000000     0.448733   
Zn11     Zn     0.034240000000     0.527210000000     0.032910000000     0.451909   
Zn12     Zn     0.962790000000     0.531710000000     0.972750000000     0.450621   
Zn13     Zn     0.029210000000     0.468350000000     0.533410000000     0.450321   
Zn14     Zn     0.963060000000     0.470940000000     0.466070000000     0.452638   
Zn15     Zn     0.962430000000     0.535030000000     0.534640000000     0.453638   
Zn16     Zn     0.030380000000     0.537090000000     0.469180000000     0.451435   
Zn17     Zn     0.468020000000     0.966510000000     0.963580000000     0.45169    
Zn18     Zn     0.465360000000     0.031350000000     0.031840000000     0.454207   
Zn19     Zn     0.535100000000     0.969430000000     0.030280000000     0.450728   
Zn20     Zn     0.530670000000     0.036430000000     0.963710000000     0.451296   
Zn21     Zn     0.468930000000     0.037640000000     0.530030000000     0.450826   
Zn22     Zn     0.464420000000     0.970930000000     0.464850000000     0.453825   
Zn23     Zn     0.536080000000     0.033200000000     0.464710000000     0.454963   
Zn24     Zn     0.531600000000     0.966780000000     0.530080000000     0.451235   
Zn25     Zn     0.464090000000     0.532710000000     0.968110000000     0.45052    
Zn26     Zn     0.463740000000     0.469210000000     0.036820000000     0.453559   
Zn27     Zn     0.530760000000     0.465750000000     0.970060000000     0.449998   
Zn28     Zn     0.532010000000     0.534440000000     0.034410000000     0.449396   
Zn29     Zn     0.462130000000     0.467300000000     0.471980000000     0.452208   
Zn30     Zn     0.463100000000     0.538080000000     0.532650000000     0.450507   
Zn31     Zn     0.531280000000     0.471080000000     0.535610000000     0.451273   
Zn32     Zn     0.531320000000     0.532780000000     0.468210000000     0.453101   


