data_structure

_audit_creation_method RASPA-1.0
_audit_creation_date 2023-5-23
_audit_author_name 'Poobodin Mano'

_cell_length_a    45.8044
_cell_length_b    45.7258
_cell_length_c    32.9788
_cell_angle_alpha 89.9992
_cell_angle_beta  89.9993
_cell_angle_gamma 90
_cell_volume      69072.2

_symmetry_cell_setting          triclinic
_symmetry_space_group_name_Hall 'P 1'
_symmetry_space_group_name_H-M  'P 1'
_symmetry_Int_Tables_number     1

_symmetry_equiv_pos_as_xyz 'x,y,z'

loop_
_atom_site_label
_atom_site_type_symbol
_atom_site_fract_x
_atom_site_fract_y
_atom_site_fract_z
_atom_site_charge
C1       C      0.060320000000     0.075420000000     0.200070000000     0.365661   
C2       C      0.999620000000     0.030770000000     0.325700000000     0.36507    
C3       C      0.944520000000     0.076040000000     0.200420000000     0.366521   
C4       C      0.946470000000     0.959690000000     0.233930000000     0.359257   
C5       C      0.061060000000     0.964310000000     0.231900000000     0.363518   
C6       C      0.999190000000     0.005870000000     0.107010000000     0.365197   
C7       C      0.001690000000     0.002090000000     0.818670000000     0.364642   
C8       C      0.063480000000     0.051610000000     0.694630000000     0.363483   
C9       C      0.068690000000     0.941130000000     0.725900000000     0.368901   
C10      C      0.006130000000     0.979020000000     0.599900000000     0.364882   
C11      C      0.952370000000     0.052110000000     0.692050000000     0.364877   
C12      C      0.951910000000     0.936430000000     0.721210000000     0.369479   
C13      C      0.214660000000     0.203220000000     0.120750000000     0.361745   
C14      C      0.323620000000     0.198800000000     0.088320000000     0.370949   
C15      C      0.261710000000     0.263860000000     0.994390000000     0.368187   
C16      C      0.330190000000     0.314830000000     0.090880000000     0.36775    
C17      C      0.287310000000     0.261200000000     0.214200000000     0.370435   
C18      C      0.214610000000     0.315430000000     0.121470000000     0.363226   
C19      C      0.188510000000     0.205730000000     0.610450000000     0.367007   
C20      C      0.262660000000     0.254700000000     0.706920000000     0.36777    
C21      C      0.302070000000     0.200190000000     0.578490000000     0.364625   
C22      C      0.306220000000     0.316820000000     0.585510000000     0.359334   
C23      C      0.194580000000     0.318270000000     0.615700000000     0.370955   
C24      C      0.238040000000     0.262770000000     0.488180000000     0.369425   
C25      C      0.198320000000     0.817650000000     0.308280000000     0.367631   
C26      C      0.235760000000     0.759480000000     0.432230000000     0.366515   
C27      C      0.201640000000     0.701600000000     0.300680000000     0.37001    
C28      C      0.310460000000     0.700800000000     0.347310000000     0.360929   
C29      C      0.312960000000     0.814360000000     0.346790000000     0.361435   
C30      C      0.271890000000     0.763640000000     0.216680000000     0.365488   
C31      C      0.218570000000     0.810010000000     0.807920000000     0.36578    
C32      C      0.209010000000     0.695960000000     0.816110000000     0.365117   
C33      C      0.276800000000     0.746560000000     0.709570000000     0.365622   
C34      C      0.326030000000     0.688760000000     0.821100000000     0.371654   
C35      C      0.266870000000     0.745960000000     0.930190000000     0.364143   
C36      C      0.329470000000     0.803280000000     0.832170000000     0.372728   
C37      C      0.561510000000     0.048250000000     0.005910000000     0.369717   
C38      C      0.563700000000     0.935810000000     0.976700000000     0.363555   
C39      C      0.510310000000     0.965570000000     0.096400000000     0.365172   
C40      C      0.447160000000     0.944690000000     0.959290000000     0.366773   
C41      C      0.512240000000     0.004280000000     0.878560000000     0.362608   
C42      C      0.454810000000     0.047080000000     0.016330000000     0.367174   
C43      C      0.443950000000     0.062050000000     0.492510000000     0.367657   
C44      C      0.496490000000     0.989470000000     0.592570000000     0.362974   
C45      C      0.445850000000     0.944480000000     0.471920000000     0.360824   
C46      C      0.561950000000     0.952720000000     0.464820000000     0.365281   
C47      C      0.555760000000     0.060850000000     0.500960000000     0.365317   
C48      C      0.496680000000     0.010320000000     0.371170000000     0.360413   
C49      C      0.817730000000     0.815980000000     0.344140000000     0.35936    
C50      C      0.780490000000     0.751420000000     0.473050000000     0.363543   
C51      C      0.708150000000     0.814630000000     0.390850000000     0.369194   
C52      C      0.705980000000     0.698780000000     0.385740000000     0.3664     
C53      C      0.820500000000     0.699970000000     0.344690000000     0.362514   
C54      C      0.743140000000     0.755420000000     0.260680000000     0.364008   
C55      C      0.827660000000     0.823510000000     0.870880000000     0.372255   
C56      C      0.711240000000     0.814580000000     0.872940000000     0.367566   
C57      C      0.772850000000     0.765270000000     0.759750000000     0.363643   
C58      C      0.719210000000     0.702010000000     0.878080000000     0.365859   
C59      C      0.777510000000     0.763940000000     0.980560000000     0.366007   
C60      C      0.832010000000     0.708220000000     0.862150000000     0.37348    
C61      C      0.795140000000     0.205910000000     0.112760000000     0.363705   
C62      C      0.728840000000     0.262400000000     0.208920000000     0.369375   
C63      C      0.796720000000     0.320160000000     0.111460000000     0.365148   
C64      C      0.681060000000     0.318700000000     0.090230000000     0.367438   
C65      C      0.687150000000     0.204920000000     0.076860000000     0.3702     
C66      C      0.751290000000     0.269210000000     0.987570000000     0.368263   
C67      C      0.805410000000     0.316410000000     0.614160000000     0.368039   
C68      C      0.777060000000     0.251720000000     0.483200000000     0.36904    
C69      C      0.820750000000     0.200240000000     0.605100000000     0.364262   
C70      C      0.704060000000     0.195830000000     0.578020000000     0.36299    
C71      C      0.700200000000     0.306240000000     0.572030000000     0.36016    
C72      C      0.748640000000     0.247030000000     0.702800000000     0.368815   
C73      C      0.494840000000     0.520120000000     0.879260000000     0.36396    
C74      C      0.447070000000     0.587520000000     0.982760000000     0.36836    
C75      C      0.449080000000     0.470410000000     0.998460000000     0.367594   
C76      C      0.501720000000     0.542490000000     0.098290000000     0.364279   
C77      C      0.562030000000     0.581530000000     0.963800000000     0.365718   
C78      C      0.560180000000     0.475120000000     0.006210000000     0.366096   
C79      C      0.568130000000     0.562470000000     0.484860000000     0.362699   
C80      C      0.501620000000     0.527130000000     0.592710000000     0.363741   
C81      C      0.452270000000     0.568010000000     0.453980000000     0.36256    
C82      C      0.447100000000     0.457240000000     0.498780000000     0.358292   
C83      C      0.556480000000     0.447790000000     0.500790000000     0.362384   
C84      C      0.516230000000     0.502730000000     0.377150000000     0.361434   
C85      C      0.062150000000     0.441990000000     0.206510000000     0.366735   
C86      C      0.066920000000     0.554860000000     0.222820000000     0.366826   
C87      C      0.010040000000     0.515880000000     0.103980000000     0.361521   
C88      C      0.951400000000     0.560330000000     0.231660000000     0.361636   
C89      C      0.004230000000     0.495760000000     0.325860000000     0.360702   
C90      C      0.949590000000     0.447950000000     0.192610000000     0.365581   
C91      C      0.050140000000     0.459740000000     0.678710000000     0.367457   
C92      C      0.058330000000     0.567680000000     0.731750000000     0.362387   
C93      C      0.997940000000     0.544650000000     0.599160000000     0.364787   
C94      C      0.940090000000     0.569500000000     0.723370000000     0.368516   
C95      C      0.999520000000     0.504200000000     0.816750000000     0.364779   
C96      C      0.942890000000     0.461680000000     0.686700000000     0.367299   
C97      C      0.023130000000     0.553070000000     0.534900000000    -0.0285075  
C98      C      0.976390000000     0.501510000000     0.390580000000    -0.0274964  
C99      C      0.029090000000     0.507060000000     0.391250000000    -0.0271319  
C100     C      0.016340000000     0.517730000000     0.429950000000     0.0156151  
C101     C      0.986320000000     0.514250000000     0.429710000000     0.0177205  
C102     C      0.969170000000     0.523020000000     0.462770000000    -0.0665516  
C103     C      0.971040000000     0.545310000000     0.534940000000    -0.0300481  
C104     C      0.030820000000     0.530780000000     0.462910000000    -0.0648214  
C105     C      0.983700000000     0.535770000000     0.495810000000     0.0201835  
C106     C      0.013550000000     0.539870000000     0.495800000000     0.0168195  
C107     C      0.979090000000     0.520120000000     0.883310000000    -0.0261862  
C108     C      0.031170000000     0.500970000000     0.037830000000    -0.0277487  
C109     C      0.992190000000     0.536950000000     0.038380000000    -0.0262321  
C110     C      0.997980000000     0.526430000000     0.996230000000     0.015798   
C111     C      0.021300000000     0.507160000000     0.996020000000     0.0171745  
C112     C      0.032010000000     0.494960000000     0.959980000000    -0.066523   
C113     C      0.024470000000     0.492660000000     0.882190000000    -0.0266534  
C114     C      0.982190000000     0.532220000000     0.960530000000    -0.0649729  
C115     C      0.017230000000     0.501990000000     0.924130000000     0.0167644  
C116     C      0.992160000000     0.518930000000     0.924590000000     0.0157002  
C117     C      0.510300000000     0.499230000000     0.813270000000    -0.0264851  
C118     C      0.477250000000     0.542740000000     0.657480000000    -0.0265241  
C119     C      0.522480000000     0.515010000000     0.659520000000    -0.0270473  
C120     C      0.509550000000     0.517020000000     0.700420000000     0.0170777  
C121     C      0.484680000000     0.534250000000     0.699820000000     0.016174   
C122     C      0.470340000000     0.541910000000     0.735870000000    -0.065778   
C123     C      0.472290000000     0.536310000000     0.814160000000    -0.026949   
C124     C      0.519500000000     0.503710000000     0.736080000000    -0.0664177  
C125     C      0.481270000000     0.529800000000     0.771930000000     0.0163138  
C126     C      0.504120000000     0.509940000000     0.771690000000     0.0169709  
C127     C      0.479390000000     0.526690000000     0.163070000000    -0.0269695  
C128     C      0.539430000000     0.520650000000     0.313810000000    -0.0282888  
C129     C      0.496820000000     0.489250000000     0.309330000000    -0.0266283  
C130     C      0.502030000000     0.504590000000     0.270200000000     0.0159158  
C131     C      0.527090000000     0.521470000000     0.272460000000     0.0177487  
C132     C      0.537040000000     0.537930000000     0.239430000000    -0.0670458  
C133     C      0.526340000000     0.551320000000     0.164680000000    -0.0275394  
C134     C      0.484240000000     0.505110000000     0.235570000000    -0.0652516  
C135     C      0.519900000000     0.537490000000     0.204340000000     0.0174107  
C136     C      0.493680000000     0.522450000000     0.202970000000     0.0159131  
C137     C      0.904790000000     0.425420000000     0.707410000000    -0.0258064  
C138     C      0.831780000000     0.362490000000     0.597270000000    -0.025839   
C139     C      0.830790000000     0.345510000000     0.667120000000    -0.0264332  
C140     C      0.849720000000     0.371550000000     0.663260000000     0.0167354  
C141     C      0.851480000000     0.380320000000     0.623090000000     0.0167071  
C142     C      0.871700000000     0.401460000000     0.610700000000    -0.0659963  
C143     C      0.913060000000     0.435300000000     0.635870000000    -0.0262909  
C144     C      0.865920000000     0.385340000000     0.693820000000    -0.066031   
C145     C      0.888720000000     0.414430000000     0.641050000000     0.0168627  
C146     C      0.884950000000     0.407640000000     0.681690000000     0.0165843  
C147     C      0.581350000000     0.416180000000     0.551500000000    -0.0272068  
C148     C      0.673380000000     0.335690000000     0.520230000000    -0.0268621  
C149     C      0.656190000000     0.336050000000     0.589900000000    -0.0266029  
C150     C      0.638310000000     0.356000000000     0.564260000000     0.0166238  
C151     C      0.646940000000     0.354370000000     0.524070000000     0.015994   
C152     C      0.631930000000     0.369610000000     0.493420000000    -0.0651691  
C153     C      0.589450000000     0.406570000000     0.479950000000    -0.0263623  
C154     C      0.616640000000     0.375740000000     0.576670000000    -0.0660367  
C155     C      0.608860000000     0.387910000000     0.505590000000     0.0158796  
C156     C      0.602730000000     0.392130000000     0.546290000000     0.0168209  
C157     C      0.772910000000     0.239710000000     0.769100000000    -0.0268827  
C158     C      0.727100000000     0.275720000000     0.921130000000    -0.0268728  
C159     C      0.778310000000     0.261850000000     0.922330000000    -0.0260827  
C160     C      0.766020000000     0.259210000000     0.880720000000     0.016165   
C161     C      0.736830000000     0.267140000000     0.880210000000     0.0164992  
C162     C      0.719910000000     0.265530000000     0.844870000000    -0.0662432  
C163     C      0.721570000000     0.253050000000     0.768160000000    -0.0259363  
C164     C      0.780000000000     0.249330000000     0.845570000000    -0.0661866  
C165     C      0.733860000000     0.255580000000     0.809760000000     0.0161957  
C166     C      0.763090000000     0.247790000000     0.810190000000     0.0164323  
C167     C      0.774790000000     0.226300000000     0.416660000000    -0.0270562  
C168     C      0.736170000000     0.286810000000     0.275390000000    -0.0268272  
C169     C      0.730840000000     0.234010000000     0.273050000000    -0.0269499  
C170     C      0.743570000000     0.243240000000     0.312250000000     0.0163408  
C171     C      0.746680000000     0.273360000000     0.313520000000     0.0167142  
C172     C      0.759480000000     0.287390000000     0.346750000000    -0.0664432  
C173     C      0.780370000000     0.279030000000     0.418460000000    -0.0275906  
C174     C      0.752970000000     0.225430000000     0.344240000000    -0.065957   
C175     C      0.768990000000     0.269580000000     0.378640000000     0.0170392  
C176     C      0.765790000000     0.239460000000     0.377520000000     0.0162427  
C177     C      0.930630000000     0.408070000000     0.148460000000    -0.026353   
C178     C      0.814710000000     0.362810000000     0.150770000000    -0.0262602  
C179     C      0.846770000000     0.340740000000     0.100650000000    -0.0262384  
C180     C      0.862380000000     0.363760000000     0.123940000000     0.0162855  
C181     C      0.844190000000     0.375940000000     0.152950000000     0.0162531  
C182     C      0.854250000000     0.397050000000     0.180410000000    -0.0660174  
C183     C      0.899470000000     0.427470000000     0.201730000000    -0.0261195  
C184     C      0.891460000000     0.372800000000     0.119850000000    -0.0659645  
C185     C      0.883440000000     0.405760000000     0.176740000000     0.0163351  
C186     C      0.901380000000     0.394310000000     0.146850000000     0.0163518  
C187     C      0.578520000000     0.424210000000     0.998720000000    -0.0264806  
C188     C      0.660100000000     0.368150000000     0.103930000000    -0.0263058  
C189     C      0.637390000000     0.336820000000     0.053480000000    -0.0268313  
C190     C      0.625520000000     0.366830000000     0.050920000000     0.0170213  
C191     C      0.638380000000     0.384780000000     0.079690000000     0.0159961  
C192     C      0.631760000000     0.414680000000     0.081830000000    -0.0655283  
C193     C      0.600510000000     0.455850000000     0.049440000000    -0.0261635  
C194     C      0.605540000000     0.377680000000     0.022560000000    -0.0665129  
C195     C      0.611580000000     0.425520000000     0.053570000000     0.015889   
C196     C      0.598930000000     0.407510000000     0.024700000000     0.0168781  
C197     C      0.877620000000     0.694670000000     0.827010000000    -0.0280228  
C198     C      0.894180000000     0.581760000000     0.759450000000    -0.027462   
C199     C      0.922670000000     0.620630000000     0.728800000000    -0.0276684  
C200     C      0.903390000000     0.632310000000     0.760830000000     0.0178811  
C201     C      0.887050000000     0.610180000000     0.778410000000     0.0160294  
C202     C      0.868790000000     0.615470000000     0.811770000000    -0.0654595  
C203     C      0.848710000000     0.656520000000     0.858610000000    -0.0263768  
C204     C      0.902530000000     0.660880000000     0.775540000000    -0.0673234  
C205     C      0.867880000000     0.644200000000     0.826500000000     0.0155889  
C206     C      0.884380000000     0.666140000000     0.808770000000     0.0180723  
C207     C      0.700380000000     0.660470000000     0.918980000000    -0.0266611  
C208     C      0.583910000000     0.616500000000     0.914410000000    -0.0261256  
C209     C      0.613240000000     0.599610000000     0.971180000000    -0.0261731  
C210     C      0.630560000000     0.619110000000     0.944380000000     0.0165197  
C211     C      0.613750000000     0.628970000000     0.912220000000     0.0159611  
C212     C      0.624960000000     0.648530000000     0.883350000000    -0.0656259  
C213     C      0.670720000000     0.678960000000     0.863560000000    -0.0262112  
C214     C      0.659680000000     0.627820000000     0.949040000000    -0.0661196  
C215     C      0.654080000000     0.657360000000     0.888120000000     0.0158809  
C216     C      0.670990000000     0.647040000000     0.919890000000     0.0164483  
C217     C      0.757190000000     0.742150000000     0.538940000000    -0.0279335  
C218     C      0.801140000000     0.769860000000     0.695380000000    -0.0262146  
C219     C      0.749580000000     0.757480000000     0.692360000000    -0.026719   
C220     C      0.763150000000     0.755770000000     0.651650000000     0.0180838  
C221     C      0.792490000000     0.763080000000     0.653050000000     0.0149424  
C222     C      0.809890000000     0.763400000000     0.617820000000    -0.0644244  
C223     C      0.808470000000     0.755630000000     0.539060000000    -0.0257904  
C224     C      0.749650000000     0.747930000000     0.615370000000    -0.0675252  
C225     C      0.796240000000     0.755630000000     0.581200000000     0.0148637  
C226     C      0.767000000000     0.747930000000     0.580500000000     0.0183365  
C227     C      0.737000000000     0.782510000000     0.195980000000    -0.0273825  
C228     C      0.776270000000     0.736420000000     0.045350000000    -0.0266586  
C229     C      0.769060000000     0.789060000000     0.046530000000    -0.026697   
C230     C      0.761470000000     0.775960000000     0.086250000000     0.0168932  
C231     C      0.765440000000     0.745920000000     0.085460000000     0.0166452  
C232     C      0.759120000000     0.728400000000     0.119150000000    -0.0661152  
C233     C      0.742970000000     0.729770000000     0.194250000000    -0.0271076  
C234     C      0.751300000000     0.790240000000     0.121010000000    -0.0661713  
C235     C      0.748660000000     0.742640000000     0.153780000000     0.0166983  
C236     C      0.745020000000     0.772720000000     0.154740000000     0.0169341  
C237     C      0.832300000000     0.649790000000     0.320950000000    -0.0276727  
C238     C      0.939590000000     0.612330000000     0.249310000000    -0.0264315  
C239     C      0.901970000000     0.575180000000     0.255290000000    -0.0275845  
C240     C      0.891580000000     0.603370000000     0.272030000000     0.0175029  
C241     C      0.913340000000     0.624350000000     0.270430000000     0.0148742  
C242     C      0.909400000000     0.652100000000     0.288260000000    -0.0644009  
C243     C      0.871730000000     0.685000000000     0.327060000000    -0.026261   
C244     C      0.864020000000     0.609540000000     0.288250000000    -0.0671826  
C245     C      0.882040000000     0.657900000000     0.306090000000     0.0148243  
C246     C      0.859720000000     0.637500000000     0.304470000000     0.0176214  
C247     C      0.689750000000     0.646790000000     0.395230000000    -0.0259522  
C248     C      0.585390000000     0.613620000000     0.478100000000    -0.0290102  
C249     C      0.620300000000     0.574100000000     0.470570000000    -0.0267133  
C250     C      0.632410000000     0.601980000000     0.453820000000     0.0145609  
C251     C      0.612830000000     0.624570000000     0.460090000000     0.018928   
C252     C      0.619070000000     0.653290000000     0.448410000000    -0.0677921  
C253     C      0.657630000000     0.686530000000     0.415080000000    -0.0277261  
C254     C      0.658550000000     0.606660000000     0.432140000000    -0.0639637  
C255     C      0.645580000000     0.658150000000     0.428500000000     0.0182286  
C256     C      0.664350000000     0.635430000000     0.418990000000     0.0142947  
C257     C      0.588930000000     0.906040000000     0.476970000000    -0.0263883  
C258     C      0.683840000000     0.863290000000     0.381100000000    -0.0256928  
C259     C      0.668530000000     0.831730000000     0.436460000000    -0.0261052  
C260     C      0.650910000000     0.858840000000     0.435920000000     0.0165048  
C261     C      0.659850000000     0.877110000000     0.404770000000     0.0156746  
C262     C      0.646580000000     0.904390000000     0.398450000000    -0.0655577  
C263     C      0.605930000000     0.939210000000     0.424430000000    -0.0260745  
C264     C      0.627750000000     0.866330000000     0.461690000000    -0.0662446  
C265     C      0.623720000000     0.912100000000     0.424710000000     0.0156413  
C266     C      0.614290000000     0.893400000000     0.455080000000     0.0166601  
C267     C      0.573860000000     0.101310000000     0.544700000000    -0.0264213  
C268     C      0.686700000000     0.153590000000     0.537170000000    -0.026449   
C269     C      0.654430000000     0.173980000000     0.588380000000    -0.0264077  
C270     C      0.639580000000     0.150240000000     0.565460000000     0.0164212  
C271     C      0.657790000000     0.139120000000     0.535660000000     0.0161559  
C272     C      0.648340000000     0.117450000000     0.508570000000    -0.0658144  
C273     C      0.604440000000     0.084280000000     0.489290000000    -0.0260235  
C274     C      0.611290000000     0.139290000000     0.571030000000    -0.0659568  
C275     C      0.619810000000     0.106970000000     0.513550000000     0.0161285  
C276     C      0.602060000000     0.117150000000     0.544510000000     0.0163961  
C277     C      0.530220000000     0.984520000000     0.812360000000    -0.0262843  
C278     C      0.477800000000     0.007140000000     0.658720000000    -0.0282657  
C279     C      0.511960000000     0.966560000000     0.658220000000    -0.0265519  
C280     C      0.508560000000     0.978600000000     0.700140000000     0.0156731  
C281     C      0.488080000000     0.000870000000     0.700260000000     0.0173656  
C282     C      0.480350000000     0.015650000000     0.735840000000    -0.0669477  
C283     C      0.490180000000     0.019330000000     0.812770000000    -0.0270661  
C284     C      0.524130000000     0.971430000000     0.735590000000    -0.0647629  
C285     C      0.494980000000     0.007700000000     0.771380000000     0.0168862  
C286     C      0.517030000000     0.986970000000     0.771160000000     0.0155741  
C287     C      0.536760000000     0.970770000000     0.161010000000    -0.0300495  
C288     C      0.473350000000     0.992850000000     0.306870000000    -0.0260605  
C289     C      0.523110000000     0.011030000000     0.305320000000    -0.0282332  
C290     C      0.515850000000     0.996020000000     0.266820000000     0.0183876  
C291     C      0.487580000000     0.985330000000     0.267540000000     0.0147641  
C292     C      0.476170000000     0.969310000000     0.234620000000    -0.0639912  
C293     C      0.488030000000     0.950520000000     0.161320000000    -0.0275889  
C294     C      0.534100000000     0.991800000000     0.233340000000    -0.0669144  
C295     C      0.494680000000     0.964800000000     0.201070000000     0.0154059  
C296     C      0.522700000000     0.976000000000     0.200620000000     0.0198423  
C297     C      0.693460000000     0.863540000000     0.892690000000    -0.0285593  
C298     C      0.580300000000     0.885710000000     0.957370000000    -0.0261292  
C299     C      0.615820000000     0.924800000000     0.964480000000    -0.0283118  
C300     C      0.628870000000     0.899490000000     0.943680000000     0.0192867  
C301     C      0.608610000000     0.877330000000     0.938360000000     0.0144323  
C302     C      0.615570000000     0.852030000000     0.916030000000    -0.0640222  
C303     C      0.658000000000     0.825630000000     0.877510000000    -0.0258858  
C304     C      0.657320000000     0.897280000000     0.929020000000    -0.068421   
C305     C      0.644100000000     0.850100000000     0.900380000000     0.014293   
C306     C      0.664390000000     0.871930000000     0.907690000000     0.0193978  
C307     C      0.587010000000     0.079010000000     0.056030000000    -0.0264163  
C308     C      0.660850000000     0.175900000000     0.024570000000    -0.0256471  
C309     C      0.658020000000     0.161020000000     0.095280000000    -0.0259177  
C310     C      0.640850000000     0.141100000000     0.069200000000     0.0175135  
C311     C      0.643630000000     0.148640000000     0.028660000000     0.0158236  
C312     C      0.630740000000     0.131840000000     0.997860000000    -0.0654231  
C313     C      0.597570000000     0.086600000000     0.984520000000    -0.0253703  
C314     C      0.622700000000     0.118260000000     0.081520000000    -0.0670219  
C315     C      0.613770000000     0.107910000000     0.010160000000     0.0158009  
C316     C      0.608810000000     0.102350000000     0.050920000000     0.0175553  
C317     C      0.075610000000     0.617320000000     0.752210000000    -0.0261585  
C318     C      0.191230000000     0.645760000000     0.801490000000    -0.0275137  
C319     C      0.155780000000     0.684300000000     0.813560000000    -0.0259798  
C320     C      0.141240000000     0.657600000000     0.797340000000     0.0153595  
C321     C      0.161410000000     0.635290000000     0.792470000000     0.0176914  
C322     C      0.153240000000     0.607570000000     0.778460000000    -0.0669318  
C323     C      0.109740000000     0.576630000000     0.752960000000    -0.0268045  
C324     C      0.112130000000     0.654100000000     0.784840000000    -0.0649033  
C325     C      0.123920000000     0.603670000000     0.767930000000     0.0174212  
C326     C      0.104180000000     0.626600000000     0.769320000000     0.0154982  
C327     C      0.377180000000     0.675220000000     0.833260000000    -0.0300157  
C328     C      0.395650000000     0.599790000000     0.968150000000    -0.0276196  
C329     C      0.432960000000     0.636110000000     0.956250000000    -0.0296673  
C330     C      0.408750000000     0.639880000000     0.927310000000     0.0200375  
C331     C      0.387260000000     0.619080000000     0.933700000000     0.0152056  
C332     C      0.363560000000     0.616210000000     0.906890000000    -0.0638073  
C333     C      0.339260000000     0.639390000000     0.842850000000    -0.0275283  
C334     C      0.407930000000     0.658910000000     0.894260000000    -0.0675296  
C335     C      0.362740000000     0.635410000000     0.873610000000     0.0151337  
C336     C      0.384370000000     0.656090000000     0.867750000000     0.0212562  
C337     C      0.371830000000     0.817210000000     0.873840000000    -0.0272251  
C338     C      0.405470000000     0.933550000000     0.912910000000    -0.0260952  
C339     C      0.425660000000     0.895210000000     0.955520000000    -0.0273263  
C340     C      0.406260000000     0.882750000000     0.924370000000     0.0185387  
C341     C      0.394500000000     0.904420000000     0.899960000000     0.0149168  
C342     C      0.375910000000     0.897560000000     0.867390000000    -0.0645377  
C343     C      0.349930000000     0.854190000000     0.830580000000    -0.0255812  
C344     C      0.400630000000     0.853230000000     0.917560000000    -0.0679787  
C345     C      0.370090000000     0.867780000000     0.860650000000     0.0148509  
C346     C      0.382390000000     0.846410000000     0.885080000000     0.0183804  
C347     C      0.237980000000     0.784240000000     0.499080000000    -0.0271505  
C348     C      0.266490000000     0.722070000000     0.643610000000    -0.0268399  
C349     C      0.276520000000     0.774230000000     0.644980000000    -0.0270722  
C350     C      0.263910000000     0.765650000000     0.605510000000     0.0169651  
C351     C      0.258370000000     0.735870000000     0.604530000000     0.0166035  
C352     C      0.246130000000     0.722520000000     0.570310000000    -0.0660487  
C353     C      0.229430000000     0.731900000000     0.496560000000    -0.0272551  
C354     C      0.257110000000     0.783860000000     0.572740000000    -0.0663365  
C355     C      0.239450000000     0.740720000000     0.537420000000     0.0166003  
C356     C      0.244560000000     0.770580000000     0.538740000000     0.0168757  
C357     C      0.299870000000     0.758260000000     0.151050000000    -0.0257721  
C358     C      0.242310000000     0.754220000000     0.996790000000    -0.0265119  
C359     C      0.293720000000     0.741150000000     0.995490000000    -0.0262979  
C360     C      0.284610000000     0.748620000000     0.037340000000     0.0152702  
C361     C      0.255320000000     0.756170000000     0.037910000000     0.0175349  
C362     C      0.241500000000     0.764560000000     0.073780000000    -0.0670445  
C363     C      0.248510000000     0.771430000000     0.150330000000    -0.0274614  
C364     C      0.301710000000     0.748900000000     0.072800000000    -0.0648077  
C365     C      0.258540000000     0.764980000000     0.108980000000     0.0177315  
C366     C      0.287800000000     0.757330000000     0.108900000000     0.0152255  
C367     C      0.091170000000     0.602780000000     0.208490000000    -0.026217   
C368     C      0.181740000000     0.650940000000     0.306960000000    -0.0256833  
C369     C      0.162180000000     0.683570000000     0.255460000000    -0.0258418  
C370     C      0.148050000000     0.654560000000     0.252920000000     0.0162628  
C371     C      0.159470000000     0.635810000000     0.281900000000     0.0164064  
C372     C      0.149660000000     0.606950000000     0.285460000000    -0.0661561  
C373     C      0.112640000000     0.569450000000     0.257540000000    -0.0263369  
C374     C      0.125680000000     0.645790000000     0.226610000000    -0.0660284  
C375     C      0.127670000000     0.598020000000     0.258670000000     0.0163305  
C376     C      0.115710000000     0.616970000000     0.230380000000     0.0163288  
C377     C      0.437690000000     0.607110000000     0.404940000000    -0.0266513  
C378     C      0.324470000000     0.658960000000     0.391640000000    -0.0268524  
C379     C      0.360460000000     0.678060000000     0.344520000000    -0.0265788  
C380     C      0.373480000000     0.654730000000     0.370520000000     0.0157672  
C381     C      0.352960000000     0.644110000000     0.397610000000     0.0161352  
C382     C      0.360070000000     0.622660000000     0.426450000000    -0.0657489  
C383     C      0.401990000000     0.589710000000     0.453750000000    -0.0265447  
C384     C      0.402230000000     0.643960000000     0.370310000000    -0.0653217  
C385     C      0.388830000000     0.612080000000     0.426460000000     0.0161426  
C386     C      0.409260000000     0.622230000000     0.398890000000     0.0157746  
C387     C      0.364600000000     0.827560000000     0.364720000000    -0.0263304  
C388     C      0.395180000000     0.929690000000     0.455080000000    -0.0287093  
C389     C      0.433400000000     0.893000000000     0.452830000000    -0.0265469  
C390     C      0.406690000000     0.882410000000     0.431270000000     0.0144024  
C391     C      0.384770000000     0.903150000000     0.434050000000     0.0185709  
C392     C      0.357300000000     0.898780000000     0.416640000000    -0.067849   
C393     C      0.325680000000     0.862650000000     0.376040000000    -0.0280551  
C394     C      0.402650000000     0.856590000000     0.408560000000    -0.0640299  
C395     C      0.353020000000     0.872780000000     0.395180000000     0.0182482  
C396     C      0.375170000000     0.852510000000     0.390110000000     0.0144044  
C397     C      0.163380000000     0.344690000000     0.664800000000    -0.0261103  
C398     C      0.077080000000     0.430040000000     0.627510000000    -0.025621   
C399     C      0.086420000000     0.422350000000     0.699330000000    -0.0262773  
C400     C      0.105370000000     0.403410000000     0.674410000000     0.0175027  
C401     C      0.101100000000     0.408700000000     0.633430000000     0.0157827  
C402     C      0.118600000000     0.395280000000     0.603900000000    -0.0653431  
C403     C      0.161250000000     0.358490000000     0.593620000000    -0.0253528  
C404     C      0.125390000000     0.382590000000     0.688050000000    -0.0671147  
C405     C      0.139600000000     0.375310000000     0.617720000000     0.0157605  
C406     C      0.141910000000     0.368290000000     0.658500000000     0.0174631  
C407     C      0.396820000000     0.444090000000     0.521550000000    -0.0274582  
C408     C      0.358200000000     0.330890000000     0.572390000000    -0.0267053  
C409     C      0.320580000000     0.368230000000     0.569580000000    -0.0275422  
C410     C      0.349190000000     0.380480000000     0.556930000000     0.0171199  
C411     C      0.370370000000     0.358890000000     0.556390000000     0.0153732  
C412     C      0.398490000000     0.364500000000     0.540950000000    -0.0647692  
C413     C      0.431910000000     0.405180000000     0.509980000000    -0.0266995  
C414     C      0.355640000000     0.409440000000     0.546130000000    -0.0664737  
C415     C      0.404550000000     0.393270000000     0.528240000000     0.0154355  
C416     C      0.384100000000     0.415340000000     0.532720000000     0.0171068  
C417     C      0.316010000000     0.156420000000     0.537820000000    -0.0261963  
C418     C      0.430230000000     0.107680000000     0.528120000000    -0.0269811  
C419     C      0.395160000000     0.086010000000     0.481760000000    -0.0258552  
C420     C      0.381550000000     0.110240000000     0.505480000000     0.0152651  
C421     C      0.401780000000     0.122630000000     0.531560000000     0.0170195  
C422     C      0.394320000000     0.145210000000     0.558310000000    -0.066721   
C423     C      0.352000000000     0.178400000000     0.582550000000    -0.0265299  
C424     C      0.352410000000     0.119730000000     0.505150000000    -0.065202   
C425     C      0.365340000000     0.154840000000     0.557740000000     0.0169125  
C426     C      0.344900000000     0.142360000000     0.532060000000     0.0152308  
C427     C      0.234770000000     0.261360000000     0.928250000000    -0.0257187  
C428     C      0.290580000000     0.257090000000     0.772710000000    -0.0254996  
C429     C      0.238030000000     0.249760000000     0.773030000000    -0.0269531  
C430     C      0.248710000000     0.253940000000     0.814660000000     0.0169233  
C431     C      0.278670000000     0.258210000000     0.814810000000     0.0157061  
C432     C      0.293630000000     0.263490000000     0.851100000000    -0.0656634  
C433     C      0.287340000000     0.268560000000     0.928660000000    -0.0264358  
C434     C      0.232010000000     0.254760000000     0.850240000000    -0.0665684  
C435     C      0.276910000000     0.264260000000     0.886770000000     0.0159448  
C436     C      0.246940000000     0.260060000000     0.886450000000     0.01656    
C437     C      0.288240000000     0.288240000000     0.279560000000    -0.0269326  
C438     C      0.240910000000     0.236940000000     0.422340000000    -0.0268886  
C439     C      0.244480000000     0.289930000000     0.423530000000    -0.026901   
C440     C      0.255260000000     0.278220000000     0.384490000000     0.0165887  
C441     C      0.253460000000     0.247970000000     0.384040000000     0.017      
C442     C      0.264040000000     0.231530000000     0.351480000000    -0.0665344  
C443     C      0.286300000000     0.235200000000     0.279970000000    -0.0272346  
C444     C      0.267230000000     0.293800000000     0.351950000000    -0.0659964  
C445     C      0.276300000000     0.247070000000     0.319200000000     0.0171117  
C446     C      0.277620000000     0.277350000000     0.319190000000     0.016461   
C447     C      0.110980000000     0.419240000000     0.219770000000    -0.0262639  
C448     C      0.163230000000     0.333600000000     0.115850000000    -0.0263802  
C449     C      0.196220000000     0.356520000000     0.163970000000    -0.0265216  
C450     C      0.166240000000     0.368210000000     0.168950000000     0.0158716  
C451     C      0.147490000000     0.355370000000     0.141210000000     0.0164451  
C452     C      0.117990000000     0.363300000000     0.139230000000    -0.0661318  
C453     C      0.078870000000     0.397830000000     0.169270000000    -0.0269901  
C454     C      0.156400000000     0.389220000000     0.196880000000    -0.0654793  
C455     C      0.108210000000     0.384420000000     0.166920000000     0.0166235  
C456     C      0.126750000000     0.396850000000     0.195290000000     0.0158459  
C457     C      0.405840000000     0.451720000000     0.035230000000    -0.0269717  
C458     C      0.374040000000     0.332020000000     0.053080000000    -0.0262915  
C459     C      0.348130000000     0.366020000000     0.096790000000    -0.0265788  
C460     C      0.369820000000     0.381620000000     0.071410000000     0.0171625  
C461     C      0.384780000000     0.362250000000     0.046640000000     0.0157025  
C462     C      0.406010000000     0.371940000000     0.019030000000    -0.0653803  
C463     C      0.433080000000     0.418160000000     0.992420000000    -0.0260016  
C464     C      0.374900000000     0.411730000000     0.069610000000    -0.0667609  
C465     C      0.411270000000     0.402140000000     0.017450000000     0.0155321  
C466     C      0.395940000000     0.421400000000     0.041910000000     0.0171212  
C467     C      0.418860000000     0.085350000000     0.997760000000    -0.0261487  
C468     C      0.351530000000     0.153920000000     0.107760000000    -0.0254782  
C469     C      0.352060000000     0.170770000000     0.037790000000    -0.0261154  
C470     C      0.369570000000     0.143890000000     0.042200000000     0.0174357  
C471     C      0.370520000000     0.135000000000     0.082380000000     0.0160893  
C472     C      0.388610000000     0.111940000000     0.094770000000    -0.065453   
C473     C      0.426330000000     0.073880000000     0.069030000000    -0.0257215  
C474     C      0.384350000000     0.128720000000     0.011690000000    -0.0667603  
C475     C      0.404380000000     0.097460000000     0.064350000000     0.0160946  
C476     C      0.401230000000     0.104830000000     0.023800000000     0.0174631  
C477     C      0.934080000000     0.103820000000     0.695870000000    -0.0259344  
C478     C      0.842690000000     0.150590000000     0.596740000000    -0.0267246  
C479     C      0.866200000000     0.185620000000     0.641470000000    -0.0265999  
C480     C      0.880000000000     0.156410000000     0.645610000000     0.0158932  
C481     C      0.866540000000     0.136430000000     0.620150000000     0.0167944  
C482     C      0.874800000000     0.106940000000     0.619740000000    -0.0662437  
C483     C      0.910020000000     0.069060000000     0.651290000000    -0.0267463  
C484     C      0.902580000000     0.148020000000     0.672000000000    -0.0653764  
C485     C      0.897350000000     0.098580000000     0.646050000000     0.0167435  
C486     C      0.910960000000     0.118500000000     0.671450000000     0.0156497  
C487     C      0.939040000000     0.888210000000     0.749950000000    -0.0290104  
C488     C      0.840330000000     0.874120000000     0.853120000000    -0.0271281  
C489     C      0.878800000000     0.838380000000     0.860490000000    -0.029554   
C490     C      0.887120000000     0.860630000000     0.830420000000     0.020485   
C491     C      0.865140000000     0.881100000000     0.825550000000     0.0150278  
C492     C      0.866860000000     0.902680000000     0.795240000000    -0.0639953  
C493     C      0.900710000000     0.923820000000     0.738640000000    -0.0268842  
C494     C      0.912070000000     0.860620000000     0.806220000000    -0.0681213  
C495     C      0.891960000000     0.902590000000     0.770670000000     0.01502    
C496     C      0.913900000000     0.882180000000     0.776430000000     0.0194789  
C497     C      0.202350000000     0.852960000000     0.767340000000    -0.026222   
C498     C      0.088250000000     0.902370000000     0.770740000000    -0.0263743  
C499     C      0.119490000000     0.921160000000     0.717170000000    -0.0255886  
C500     C      0.135290000000     0.899150000000     0.742300000000     0.0156567  
C501     C      0.117290000000     0.888470000000     0.772670000000     0.0167996  
C502     C      0.126780000000     0.867190000000     0.800230000000    -0.0664216  
C503     C      0.170370000000     0.834080000000     0.819970000000    -0.0262659  
C504     C      0.164070000000     0.889100000000     0.738090000000    -0.0653276  
C505     C      0.155470000000     0.857170000000     0.796020000000     0.0167038  
C506     C      0.173650000000     0.867890000000     0.765890000000     0.0156657  
C507     C      0.104280000000     0.070710000000     0.652650000000    -0.0266959  
C508     C      0.145960000000     0.188210000000     0.650720000000    -0.0264667  
C509     C      0.166290000000     0.156600000000     0.598680000000    -0.0264532  
C510     C      0.144560000000     0.140550000000     0.623620000000     0.0165022  
C511     C      0.132800000000     0.158640000000     0.653110000000     0.0160311  
C512     C      0.112250000000     0.148310000000     0.681250000000    -0.0656646  
C513     C      0.082750000000     0.102480000000     0.703580000000    -0.0262508  
C514     C      0.136720000000     0.110990000000     0.620980000000    -0.0660956  
C515     C      0.104220000000     0.118790000000     0.678380000000     0.0159737  
C516     C      0.116300000000     0.100650000000     0.649210000000     0.0164804  
C517     C      0.973550000000     0.024210000000     0.391390000000    -0.0274776  
C518     C      0.031130000000     0.982330000000     0.533320000000    -0.0274567  
C519     C      0.978270000000     0.979370000000     0.535110000000    -0.0276472  
C520     C      0.988310000000     0.990860000000     0.495460000000     0.0175521  
C521     C      0.018480000000     0.992720000000     0.494620000000     0.016741   
C522     C      0.033250000000     0.005280000000     0.461810000000    -0.0664767  
C523     C      0.026380000000     0.028280000000     0.390950000000    -0.0275531  
C524     C      0.971190000000     0.001110000000     0.463190000000    -0.0671617  
C525     C      0.016160000000     0.015650000000     0.429700000000     0.0164634  
C526     C      0.986010000000     0.013460000000     0.430160000000     0.0171206  
C527     C      0.996420000000     0.977090000000     0.041860000000    -0.0252255  
C528     C      0.998560000000     0.029690000000     0.884160000000    -0.0255461  
C529     C      0.996810000000     0.976560000000     0.884790000000    -0.0258317  
C530     C      0.996200000000     0.988040000000     0.926700000000     0.0163617  
C531     C      0.997100000000     0.018340000000     0.926340000000     0.0160811  
C532     C      0.997390000000     0.034380000000     0.962410000000    -0.0659634  
C533     C      0.997510000000     0.030220000000     0.040230000000    -0.0260578  
C534     C      0.995750000000     0.972070000000     0.963100000000    -0.0656705  
C535     C      0.996740000000     0.018460000000     0.998690000000     0.0161274  
C536     C      0.996040000000     0.988160000000     0.999280000000     0.0163273  
C537     C      0.811410000000     0.162570000000     0.152480000000    -0.0264312  
C538     C      0.927970000000     0.119190000000     0.160790000000    -0.0266121  
C539     C      0.894160000000     0.096740000000     0.208260000000    -0.0261244  
C540     C      0.879250000000     0.119600000000     0.183680000000     0.0159186  
C541     C      0.898660000000     0.132510000000     0.156890000000     0.0165159  
C542     C      0.889880000000     0.154520000000     0.129920000000    -0.0661402  
C543     C      0.845760000000     0.185880000000     0.106590000000    -0.0264168  
C544     C      0.849740000000     0.127780000000     0.184530000000    -0.0655838  
C545     C      0.860460000000     0.162850000000     0.130980000000     0.0164559  
C546     C      0.840910000000     0.149700000000     0.157340000000     0.0158663  
C547     C      0.827890000000     0.866360000000     0.318840000000    -0.0276773  
C548     C      0.935610000000     0.907470000000     0.251720000000    -0.0267254  
C549     C      0.896970000000     0.943610000000     0.256480000000    -0.027779   
C550     C      0.886910000000     0.915030000000     0.272670000000     0.0172241  
C551     C      0.909310000000     0.894720000000     0.271960000000     0.0150391  
C552     C      0.905840000000     0.866890000000     0.289790000000    -0.0643968  
C553     C      0.868540000000     0.832900000000     0.327530000000    -0.0266522  
C554     C      0.859110000000     0.907880000000     0.287500000000    -0.066611   
C555     C      0.878280000000     0.860190000000     0.306440000000     0.0150658  
C556     C      0.855280000000     0.879710000000     0.303500000000     0.0171905  
C557     C      0.083670000000     0.914990000000     0.222100000000    -0.0264495  
C558     C      0.176050000000     0.867270000000     0.318690000000    -0.0259804  
C559     C      0.155570000000     0.834510000000     0.268150000000    -0.0263715  
C560     C      0.140610000000     0.863190000000     0.266870000000     0.0163575  
C561     C      0.152350000000     0.882030000000     0.295460000000     0.0156956  
C562     C      0.142180000000     0.910860000000     0.299320000000    -0.0654447  
C563     C      0.104740000000     0.948430000000     0.271300000000    -0.0263888  
C564     C      0.117930000000     0.871880000000     0.240950000000    -0.0661278  
C565     C      0.119580000000     0.919610000000     0.273200000000     0.0156831  
C566     C      0.107680000000     0.900600000000     0.244970000000     0.0164176  
C567     C      0.079840000000     0.115970000000     0.157600000000    -0.0264964  
C568     C      0.195740000000     0.161820000000     0.162390000000    -0.0266123  
C569     C      0.164450000000     0.182780000000     0.110510000000    -0.0265013  
C570     C      0.148440000000     0.160250000000     0.134300000000     0.0162863  
C571     C      0.166210000000     0.148500000000     0.164130000000     0.0159672  
C572     C      0.155820000000     0.127350000000     0.191450000000    -0.0654276  
C573     C      0.110340000000     0.096290000000     0.211310000000    -0.0260564  
C574     C      0.119420000000     0.151090000000     0.129640000000    -0.0658787  
C575     C      0.126680000000     0.118370000000     0.187020000000     0.0158679  
C576     C      0.109120000000     0.129760000000     0.156690000000     0.0163157  
H1       H      0.043350000000     0.487800000000     0.396660000000     0.0479583  
H2       H      0.966210000000     0.479740000000     0.395390000000     0.0474963  
H3       H      0.945730000000     0.520030000000     0.462830000000     0.0477002  
H4       H      0.054270000000     0.533650000000     0.462990000000     0.0470364  
H5       H      0.041100000000     0.540150000000     0.548900000000     0.0454553  
H6       H      0.956860000000     0.564680000000     0.529980000000     0.0452189  
H7       H      0.042180000000     0.524430000000     0.376220000000     0.0503443  
H8       H      0.960300000000     0.516040000000     0.375350000000     0.0508901  
H9       H      0.957490000000     0.527710000000     0.548700000000     0.0519028  
H10      H      0.031020000000     0.575730000000     0.529660000000     0.0464301  
H11      H      0.969070000000     0.533360000000     0.047360000000     0.0462399  
H12      H      0.028570000000     0.477360000000     0.045090000000     0.0527315  
H13      H      0.050690000000     0.480460000000     0.959920000000     0.0472756  
H14      H      0.963010000000     0.546040000000     0.960770000000     0.04722    
H15      H      0.957490000000     0.509060000000     0.882770000000     0.0491291  
H16      H      0.045740000000     0.501980000000     0.872340000000     0.0508469  
H17      H      0.997320000000     0.560600000000     0.041220000000     0.0489354  
H18      H      0.054490000000     0.507010000000     0.041900000000     0.0460189  
H19      H      0.025590000000     0.468450000000     0.879770000000     0.046017   
H20      H      0.976240000000     0.543070000000     0.872880000000     0.0471583  
H21      H      0.525600000000     0.491830000000     0.650220000000     0.0490449  
H22      H      0.455760000000     0.533600000000     0.648280000000     0.050964   
H23      H      0.451880000000     0.556690000000     0.735920000000     0.0473388  
H24      H      0.538390000000     0.489480000000     0.736160000000     0.0474217  
H25      H      0.504390000000     0.475760000000     0.816220000000     0.0491165  
H26      H      0.475650000000     0.559810000000     0.821420000000     0.0518503  
H27      H      0.543930000000     0.526320000000     0.658490000000     0.050099   
H28      H      0.476630000000     0.566890000000     0.653960000000     0.0457904  
H29      H      0.448940000000     0.530800000000     0.819120000000     0.0456117  
H30      H      0.533690000000     0.502020000000     0.821400000000     0.0474518  
H31      H      0.500220000000     0.465330000000     0.305780000000     0.0485778  
H32      H      0.561670000000     0.510970000000     0.313540000000     0.0454763  
H33      H      0.556990000000     0.550560000000     0.241060000000     0.047559   
H34      H      0.464070000000     0.492810000000     0.234150000000     0.0474136  
H35      H      0.473730000000     0.505380000000     0.148840000000     0.0495356  
H36      H      0.527570000000     0.575480000000     0.167670000000     0.0462883  
H37      H      0.474330000000     0.493180000000     0.320840000000     0.0479252  
H38      H      0.540750000000     0.543040000000     0.326830000000     0.0535538  
H39      H      0.547350000000     0.543170000000     0.152120000000     0.052163   
H40      H      0.459170000000     0.539880000000     0.166410000000     0.0485706  
H41      H      0.812100000000     0.349840000000     0.687750000000     0.0462554  
H42      H      0.813640000000     0.376030000000     0.585090000000     0.0491406  
H43      H      0.874470000000     0.407070000000     0.579040000000     0.0475591  
H44      H      0.864250000000     0.378660000000     0.725220000000     0.0474186  
H45      H      0.892220000000     0.440500000000     0.727250000000     0.0501544  
H46      H      0.931220000000     0.425260000000     0.618380000000     0.0510016  
H47      H      0.843280000000     0.326480000000     0.678940000000     0.0515992  
H48      H      0.843680000000     0.352290000000     0.571530000000     0.0474838  
H49      H      0.905780000000     0.455440000000     0.619920000000     0.0475374  
H50      H      0.918950000000     0.411410000000     0.726670000000     0.0464921  
H51      H      0.642610000000     0.318060000000     0.602440000000     0.0498476  
H52      H      0.669750000000     0.317430000000     0.498570000000     0.0462816  
H53      H      0.638140000000     0.367670000000     0.461870000000     0.0472233  
H54      H      0.611180000000     0.378520000000     0.608370000000     0.0470667  
H55      H      0.561770000000     0.408660000000     0.568440000000     0.0453357  
H56      H      0.602220000000     0.420410000000     0.458670000000     0.0458278  
H57      H      0.666640000000     0.347940000000     0.615460000000     0.046182   
H58      H      0.692410000000     0.348710000000     0.509690000000     0.0506311  
H59      H      0.574010000000     0.392910000000     0.462180000000     0.0493307  
H60      H      0.591280000000     0.434820000000     0.568190000000     0.0519219  
H61      H      0.795630000000     0.278830000000     0.923430000000     0.0469859  
H62      H      0.720640000000     0.299140000000     0.921810000000     0.0475134  
H63      H      0.697100000000     0.271740000000     0.844730000000     0.0471024  
H64      H      0.802840000000     0.243240000000     0.845680000000     0.047097   
H65      H      0.791720000000     0.253460000000     0.759510000000     0.0518498  
H66      H      0.704540000000     0.235780000000     0.766870000000     0.0471064  
H67      H      0.787550000000     0.240740000000     0.933030000000     0.0489872  
H68      H      0.708200000000     0.262220000000     0.931030000000     0.0518524  
H69      H      0.711950000000     0.274090000000     0.757790000000     0.0488256  
H70      H      0.779560000000     0.216360000000     0.767950000000     0.0472511  
H71      H      0.708780000000     0.224460000000     0.277630000000     0.0468532  
H72      H      0.716430000000     0.300320000000     0.281080000000     0.0467902  
H73      H      0.761670000000     0.310950000000     0.347910000000     0.0471511  
H74      H      0.750220000000     0.201920000000     0.343430000000     0.0468593  
H75      H      0.757320000000     0.212040000000     0.429220000000     0.0509522  
H76      H      0.802900000000     0.287730000000     0.415250000000     0.0468061  
H77      H      0.744960000000     0.217550000000     0.257820000000     0.0514599  
H78      H      0.753320000000     0.300800000000     0.261440000000     0.0508715  
H79      H      0.766250000000     0.296260000000     0.431960000000     0.0528494  
H80      H      0.794990000000     0.213180000000     0.412700000000     0.0466766  
H81      H      0.857690000000     0.319160000000     0.103880000000     0.0496524  
H82      H      0.808330000000     0.352930000000     0.180290000000     0.049178   
H83      H      0.840120000000     0.406160000000     0.203500000000     0.0469892  
H84      H      0.905650000000     0.363530000000     0.096970000000     0.0473048  
H85      H      0.947910000000     0.391520000000     0.154170000000     0.0478789  
H86      H      0.888580000000     0.449190000000     0.201070000000     0.0482507  
H87      H      0.845570000000     0.346400000000     0.067930000000     0.0472676  
H88      H      0.798150000000     0.379470000000     0.142220000000     0.0484172  
H89      H      0.901220000000     0.420090000000     0.233740000000     0.0486507  
H90      H      0.935680000000     0.419650000000     0.119660000000     0.0501935  
H91      H      0.646760000000     0.329790000000     0.023940000000     0.0512267  
H92      H      0.682070000000     0.378420000000     0.102300000000     0.0500785  
H93      H      0.641940000000     0.428810000000     0.104050000000     0.04718    
H94      H      0.595830000000     0.363690000000     0.999780000000     0.0473048  
H95      H      0.585990000000     0.424320000000     0.966660000000     0.0479109  
H96      H      0.589870000000     0.463370000000     0.077890000000     0.0496912  
H97      H      0.620110000000     0.321070000000     0.062530000000     0.047747   
H98      H      0.653290000000     0.366820000000     0.136210000000     0.0474603  
H99      H      0.618470000000     0.471210000000     0.041750000000     0.0474509  
H100     H      0.556130000000     0.414850000000     0.000010000000     0.049867   
H101     H      0.945700000000     0.627520000000     0.733700000000     0.0524727  
H102     H      0.900070000000     0.565220000000     0.782790000000     0.0526701  
H103     H      0.856020000000     0.598190000000     0.825490000000     0.0473554  
H104     H      0.915300000000     0.678170000000     0.761810000000     0.0475379  
H105     H      0.896600000000     0.702760000000     0.844730000000     0.0455487  
H106     H      0.825540000000     0.649990000000     0.854120000000     0.0494646  
H107     H      0.915350000000     0.628320000000     0.698510000000     0.0470055  
H108     H      0.875300000000     0.573580000000     0.741630000000     0.0469618  
H109     H      0.856090000000     0.649130000000     0.889010000000     0.0466595  
H110     H      0.872210000000     0.710980000000     0.803140000000     0.0541831  
H111     H      0.611360000000     0.608860000000     0.002230000000     0.0487456  
H112     H      0.567190000000     0.634020000000     0.916950000000     0.0481326  
H113     H      0.611610000000     0.656690000000     0.858730000000     0.0471727  
H114     H      0.672770000000     0.620310000000     0.974310000000     0.0472214  
H115     H      0.705260000000     0.671940000000     0.947930000000     0.050021   
H116     H      0.673800000000     0.671020000000     0.832010000000     0.0472312  
H117     H      0.623220000000     0.577500000000     0.973260000000     0.0485191  
H118     H      0.579000000000     0.603050000000     0.887170000000     0.0493884  
H119     H      0.659420000000     0.700470000000     0.862620000000     0.049523   
H120     H      0.717450000000     0.643640000000     0.913650000000     0.0479397  
H121     H      0.739900000000     0.736160000000     0.701400000000     0.0494561  
H122     H      0.818760000000     0.754970000000     0.705920000000     0.0502078  
H123     H      0.832690000000     0.769570000000     0.618850000000     0.0474115  
H124     H      0.726690000000     0.742370000000     0.614200000000     0.0478005  
H125     H      0.750440000000     0.718940000000     0.535420000000     0.0483611  
H126     H      0.817770000000     0.777280000000     0.530860000000     0.0482874  
H127     H      0.732280000000     0.774510000000     0.693240000000     0.048344   
H128     H      0.808910000000     0.792800000000     0.698120000000     0.0479884  
H129     H      0.825700000000     0.738710000000     0.535710000000     0.0474868  
H130     H      0.738360000000     0.756420000000     0.531030000000     0.0531545  
H131     H      0.788020000000     0.804070000000     0.049440000000     0.0478384  
H132     H      0.798590000000     0.727090000000     0.047840000000     0.0480946  
H133     H      0.762550000000     0.704980000000     0.118610000000     0.0474448  
H134     H      0.748790000000     0.813770000000     0.121960000000     0.0477432  
H135     H      0.752360000000     0.799550000000     0.207130000000     0.0524631  
H136     H      0.722960000000     0.716050000000     0.193560000000     0.0473639  
H137     H      0.750300000000     0.801390000000     0.033650000000     0.0509174  
H138     H      0.761580000000     0.719710000000     0.031760000000     0.0508451  
H139     H      0.761660000000     0.716170000000     0.204620000000     0.0510187  
H140     H      0.714480000000     0.791520000000     0.196280000000     0.0470553  
H141     H      0.888280000000     0.568100000000     0.229270000000     0.0461289  
H142     H      0.943400000000     0.623890000000     0.220150000000     0.0488679  
H143     H      0.926640000000     0.668270000000     0.288220000000     0.0471793  
H144     H      0.846750000000     0.593380000000     0.288210000000     0.0471923  
H145     H      0.815040000000     0.650350000000     0.297260000000     0.0523115  
H146     H      0.883390000000     0.688110000000     0.356280000000     0.0488778  
H147     H      0.901460000000     0.557790000000     0.278850000000     0.0516994  
H148     H      0.959510000000     0.614340000000     0.268360000000     0.0473233  
H149     H      0.875070000000     0.704750000000     0.307960000000     0.0466959  
H150     H      0.824240000000     0.636620000000     0.346970000000     0.0464298  
H151     H      0.633150000000     0.566890000000     0.497320000000     0.0482546  
H152     H      0.581410000000     0.623960000000     0.508080000000     0.045519   
H153     H      0.603950000000     0.670990000000     0.454290000000     0.0475004  
H154     H      0.673440000000     0.588880000000     0.425680000000     0.0468028  
H155     H      0.710860000000     0.640810000000     0.409650000000     0.0465575  
H156     H      0.642660000000     0.697540000000     0.393400000000     0.0462053  
H157     H      0.620440000000     0.556350000000     0.447530000000     0.0463865  
H158     H      0.566530000000     0.618530000000     0.457990000000     0.0540188  
H159     H      0.661210000000     0.701280000000     0.441420000000     0.0521112  
H160     H      0.689460000000     0.638090000000     0.363790000000     0.0481714  
H161     H      0.654520000000     0.812060000000     0.432730000000     0.0485333  
H162     H      0.677350000000     0.859850000000     0.348990000000     0.0486198  
H163     H      0.653560000000     0.918770000000     0.374260000000     0.0468044  
H164     H      0.620480000000     0.851740000000     0.485500000000     0.0472518  
H165     H      0.569370000000     0.891810000000     0.474160000000     0.0496875  
H166     H      0.619610000000     0.958680000000     0.431210000000     0.0484235  
H167     H      0.680870000000     0.829670000000     0.465340000000     0.0491027  
H168     H      0.703950000000     0.876870000000     0.381840000000     0.0472239  
H169     H      0.595130000000     0.942500000000     0.394600000000     0.0482493  
H170     H      0.593900000000     0.909180000000     0.509660000000     0.047814   
H171     H      0.656140000000     0.168530000000     0.621130000000     0.0474118  
H172     H      0.704160000000     0.137620000000     0.544740000000     0.049108   
H173     H      0.662460000000     0.109150000000     0.484900000000     0.0469829  
H174     H      0.597200000000     0.147520000000     0.594780000000     0.0473323  
H175     H      0.570720000000     0.089270000000     0.573660000000     0.050335   
H176     H      0.601170000000     0.091640000000     0.457510000000     0.0486397  
H177     H      0.642600000000     0.195070000000     0.585170000000     0.0497387  
H178     H      0.692090000000     0.164100000000     0.507710000000     0.048632   
H179     H      0.616750000000     0.063330000000     0.489020000000     0.0476441  
H180     H      0.555240000000     0.116590000000     0.540450000000     0.0476591  
H181     H      0.503640000000     0.943770000000     0.656640000000     0.0485217  
H182     H      0.453880000000     0.003580000000     0.656160000000     0.0458392  
H183     H      0.463970000000     0.032710000000     0.735780000000     0.047237   
H184     H      0.541010000000     0.954870000000     0.735450000000     0.0473886  
H185     H      0.529430000000     0.961640000000     0.823730000000     0.0477344  
H186     H      0.493610000000     0.043380000000     0.813740000000     0.0465208  
H187     H      0.535140000000     0.966810000000     0.648250000000     0.0469083  
H188     H      0.482690000000     0.030180000000     0.650270000000     0.0532281  
H189     H      0.467670000000     0.014460000000     0.823420000000     0.0511854  
H190     H      0.553320000000     0.991940000000     0.812100000000     0.0488925  
H191     H      0.527620000000     0.034590000000     0.299990000000     0.0474218  
H192     H      0.454740000000     0.008030000000     0.302010000000     0.0473918  
H193     H      0.454040000000     0.961020000000     0.234980000000     0.0473483  
H194     H      0.556040000000     0.000590000000     0.232640000000     0.0469668  
H195     H      0.545930000000     0.991360000000     0.148370000000     0.0542962  
H196     H      0.486340000000     0.926460000000     0.165350000000     0.0472297  
H197     H      0.542600000000     0.000950000000     0.319800000000     0.0515881  
H198     H      0.465200000000     0.972940000000     0.322560000000     0.0496195  
H199     H      0.467220000000     0.958800000000     0.148260000000     0.0460013  
H200     H      0.554950000000     0.954930000000     0.164710000000     0.0446646  
H201     H      0.617900000000     0.944860000000     0.945630000000     0.0538912  
H202     H      0.561940000000     0.884070000000     0.935430000000     0.0479128  
H203     H      0.599740000000     0.834800000000     0.911250000000     0.0468672  
H204     H      0.673230000000     0.914410000000     0.934090000000     0.0481385  
H205     H      0.700690000000     0.878600000000     0.868240000000     0.0459633  
H206     H      0.654570000000     0.804260000000     0.892870000000     0.0470795  
H207     H      0.626650000000     0.928700000000     0.994140000000     0.0462841  
H208     H      0.575540000000     0.871530000000     0.983900000000     0.0481811  
H209     H      0.649070000000     0.824380000000     0.846240000000     0.0475367  
H210     H      0.709770000000     0.864190000000     0.917660000000     0.0545917  
H211     H      0.675990000000     0.149080000000     0.110740000000     0.0502266  
H212     H      0.680240000000     0.172610000000     0.004820000000     0.0468405  
H213     H      0.633480000000     0.137300000000     0.966150000000     0.0472542  
H214     H      0.619260000000     0.113340000000     0.113280000000     0.0474328  
H215     H      0.595880000000     0.060590000000     0.074270000000     0.0469821  
H216     H      0.582950000000     0.097790000000     0.962550000000     0.0460182  
H217     H      0.644100000000     0.171700000000     0.118570000000     0.046955   
H218     H      0.647330000000     0.193830000000     0.011740000000     0.0498463  
H219     H      0.612830000000     0.072190000000     0.967590000000     0.0492382  
H220     H      0.567060000000     0.087490000000     0.071210000000     0.0515514  
H221     H      0.148250000000     0.688990000000     0.844920000000     0.0483717  
H222     H      0.201140000000     0.633050000000     0.826680000000     0.0460277  
H223     H      0.169000000000     0.590070000000     0.775340000000     0.0475789  
H224     H      0.096610000000     0.671910000000     0.786590000000     0.0470351  
H225     H      0.057600000000     0.620680000000     0.774300000000     0.0471462  
H226     H      0.120920000000     0.568040000000     0.725530000000     0.0467032  
H227     H      0.151430000000     0.703740000000     0.794240000000     0.046737   
H228     H      0.205500000000     0.643830000000     0.774340000000     0.0530259  
H229     H      0.109770000000     0.559370000000     0.776690000000     0.0508299  
H230     H      0.070500000000     0.629650000000     0.724050000000     0.0498032  
H231     H      0.432430000000     0.654020000000     0.978990000000     0.0450575  
H232     H      0.381940000000     0.604840000000     0.995030000000     0.0469131  
H233     H      0.346780000000     0.599890000000     0.911570000000     0.047242   
H234     H      0.424880000000     0.675030000000     0.889310000000     0.0480844  
H235     H      0.380780000000     0.698670000000     0.840700000000     0.0542598  
H236     H      0.340500000000     0.621600000000     0.819980000000     0.046096   
H237     H      0.454410000000     0.636620000000     0.940490000000     0.055207   
H238     H      0.393080000000     0.576280000000     0.960160000000     0.0503521  
H239     H      0.317230000000     0.639230000000     0.857120000000     0.0473807  
H240     H      0.391330000000     0.669440000000     0.807100000000     0.0440342  
H241     H      0.447820000000     0.885320000000     0.953850000000     0.0518449  
H242     H      0.416460000000     0.945130000000     0.887500000000     0.0498639  
H243     H      0.366460000000     0.914420000000     0.848470000000     0.047267   
H244     H      0.409870000000     0.836380000000     0.936720000000     0.0476514  
H245     H      0.389960000000     0.803590000000     0.861830000000     0.0467602  
H246     H      0.327610000000     0.863640000000     0.832580000000     0.0487962  
H247     H      0.416620000000     0.891530000000     0.986360000000     0.0480422  
H248     H      0.387330000000     0.947390000000     0.924380000000     0.0474988  
H249     H      0.358300000000     0.857140000000     0.799230000000     0.0472036  
H250     H      0.362070000000     0.805950000000     0.900520000000     0.052663   
H251     H      0.263370000000     0.791810000000     0.659450000000     0.0514665  
H252     H      0.247600000000     0.710400000000     0.657280000000     0.0511514  
H253     H      0.242360000000     0.699170000000     0.569140000000     0.0474726  
H254     H      0.261680000000     0.807080000000     0.573490000000     0.0474224  
H255     H      0.218560000000     0.798680000000     0.501540000000     0.0470619  
H256     H      0.243370000000     0.714140000000     0.484030000000     0.0521433  
H257     H      0.299310000000     0.782080000000     0.641190000000     0.0480081  
H258     H      0.284700000000     0.706320000000     0.639380000000     0.0474902  
H259     H      0.206450000000     0.724190000000     0.497680000000     0.0468288  
H260     H      0.256810000000     0.797300000000     0.487870000000     0.051254   
H261     H      0.301080000000     0.718030000000     0.993560000000     0.0479778  
H262     H      0.224850000000     0.737360000000     0.995720000000     0.0477583  
H263     H      0.218560000000     0.770270000000     0.074370000000     0.0474573  
H264     H      0.324520000000     0.742720000000     0.072320000000     0.0473195  
H265     H      0.309250000000     0.736830000000     0.160150000000     0.0481831  
H266     H      0.241520000000     0.794630000000     0.153000000000     0.0480827  
H267     H      0.311800000000     0.755560000000     0.985140000000     0.0503193  
H268     H      0.232980000000     0.775550000000     0.987090000000     0.0493359  
H269     H      0.229800000000     0.757130000000     0.158660000000     0.0526201  
H270     H      0.317010000000     0.775330000000     0.153840000000     0.0475329  
H271     H      0.145940000000     0.701020000000     0.261930000000     0.0480304  
H272     H      0.175000000000     0.651880000000     0.339310000000     0.048453   
H273     H      0.158400000000     0.592310000000     0.308230000000     0.0470472  
H274     H      0.116280000000     0.660710000000     0.204720000000     0.0472292  
H275     H      0.070510000000     0.615230000000     0.212350000000     0.0499257  
H276     H      0.127810000000     0.551870000000     0.247680000000     0.0480371  
H277     H      0.173690000000     0.688990000000     0.226750000000     0.0495117  
H278     H      0.203290000000     0.639870000000     0.304910000000     0.0480584  
H279     H      0.103630000000     0.563640000000     0.287800000000     0.0499075  
H280     H      0.096010000000     0.600810000000     0.175600000000     0.0473512  
H281     H      0.361050000000     0.671780000000     0.311980000000     0.0478429  
H282     H      0.307360000000     0.643090000000     0.382330000000     0.0485257  
H283     H      0.344040000000     0.614670000000     0.447880000000     0.0470543  
H284     H      0.418320000000     0.652110000000     0.349090000000     0.0474217  
H285     H      0.444190000000     0.594820000000     0.377300000000     0.0492805  
H286     H      0.401480000000     0.597040000000     0.485870000000     0.0487162  
H287     H      0.372210000000     0.699150000000     0.348270000000     0.049198   
H288     H      0.317210000000     0.670050000000     0.419900000000     0.0493015  
H289     H      0.390310000000     0.568480000000     0.451400000000     0.0481318  
H290     H      0.455260000000     0.622960000000     0.412460000000     0.0483841  
H291     H      0.452930000000     0.892300000000     0.432830000000     0.0475126  
H292     H      0.392830000000     0.949220000000     0.435250000000     0.0537976  
H293     H      0.340110000000     0.914900000000     0.419480000000     0.0474774  
H294     H      0.419940000000     0.840640000000     0.405280000000     0.0471178  
H295     H      0.376280000000     0.826920000000     0.335210000000     0.0482677  
H296     H      0.307960000000     0.860760000000     0.398950000000     0.0527159  
H297     H      0.437700000000     0.879480000000     0.480170000000     0.0482568  
H298     H      0.382560000000     0.933460000000     0.483370000000     0.045982   
H299     H      0.318510000000     0.878040000000     0.351940000000     0.04656    
H300     H      0.367720000000     0.806250000000     0.380370000000     0.0475928  
H301     H      0.099630000000     0.437470000000     0.718310000000     0.050934   
H302     H      0.084390000000     0.449280000000     0.609590000000     0.0466511  
H303     H      0.116020000000     0.400100000000     0.571960000000     0.0474049  
H304     H      0.127980000000     0.377780000000     0.719990000000     0.0473797  
H305     H      0.181030000000     0.351620000000     0.685840000000     0.0467666  
H306     H      0.150540000000     0.345550000000     0.569280000000     0.0471584  
H307     H      0.072030000000     0.409210000000     0.719450000000     0.0468689  
H308     H      0.058230000000     0.419720000000     0.611850000000     0.0498204  
H309     H      0.177680000000     0.373270000000     0.579670000000     0.0492307  
H310     H      0.152700000000     0.324790000000     0.677280000000     0.0507633  
H311     H      0.304240000000     0.370240000000     0.544800000000     0.0517722  
H312     H      0.361240000000     0.312660000000     0.550500000000     0.0470111  
H313     H      0.414760000000     0.347400000000     0.538900000000     0.0472559  
H314     H      0.339330000000     0.426510000000     0.548010000000     0.0473952  
H315     H      0.384060000000     0.454750000000     0.497000000000     0.0463083  
H316     H      0.451260000000     0.400280000000     0.529150000000     0.0468234  
H317     H      0.312030000000     0.379640000000     0.596850000000     0.0462652  
H318     H      0.368810000000     0.324860000000     0.601510000000     0.0490664  
H319     H      0.435600000000     0.395900000000     0.479270000000     0.0496032  
H320     H      0.397390000000     0.459000000000     0.548170000000     0.0516042  
H321     H      0.395630000000     0.091330000000     0.448890000000     0.0473703  
H322     H      0.447350000000     0.122990000000     0.517160000000     0.0474742  
H323     H      0.410230000000     0.154650000000     0.578760000000     0.0471907  
H324     H      0.336370000000     0.109920000000     0.485250000000     0.0466842  
H325     H      0.307930000000     0.166130000000     0.509020000000     0.0491296  
H326     H      0.353130000000     0.173120000000     0.615400000000     0.0475647  
H327     H      0.383250000000     0.065070000000     0.486080000000     0.0480723  
H328     H      0.437160000000     0.098640000000     0.557910000000     0.0515418  
H329     H      0.363050000000     0.199710000000     0.577280000000     0.0494852  
H330     H      0.299640000000     0.140380000000     0.548920000000     0.0478545  
H331     H      0.221330000000     0.266500000000     0.765250000000     0.0517649  
H332     H      0.301990000000     0.277720000000     0.764570000000     0.0479688  
H333     H      0.317030000000     0.266830000000     0.851610000000     0.0470463  
H334     H      0.208610000000     0.251490000000     0.849720000000     0.0471653  
H335     H      0.219370000000     0.279980000000     0.931580000000     0.0471751  
H336     H      0.303890000000     0.251770000000     0.936870000000     0.0510116  
H337     H      0.228190000000     0.227700000000     0.769290000000     0.0483256  
H338     H      0.305970000000     0.238500000000     0.769010000000     0.0470854  
H339     H      0.297240000000     0.290580000000     0.932410000000     0.0480057  
H340     H      0.223250000000     0.240780000000     0.936360000000     0.0482427  
H341     H      0.224300000000     0.302980000000     0.418900000000     0.046913   
H342     H      0.219120000000     0.227000000000     0.416910000000     0.0473315  
H343     H      0.262570000000     0.207900000000     0.351130000000     0.0471193  
H344     H      0.268190000000     0.317460000000     0.351980000000     0.0473157  
H345     H      0.272860000000     0.304480000000     0.266360000000     0.0514584  
H346     H      0.307380000000     0.223500000000     0.283750000000     0.047016   
H347     H      0.261240000000     0.303940000000     0.438310000000     0.0518345  
H348     H      0.255430000000     0.220350000000     0.436540000000     0.0510769  
H349     H      0.269920000000     0.219880000000     0.266980000000     0.0520788  
H350     H      0.310070000000     0.298530000000     0.282950000000     0.0467941  
H351     H      0.204210000000     0.346420000000     0.192560000000     0.0494006  
H352     H      0.153620000000     0.311410000000     0.119280000000     0.0494399  
H353     H      0.103430000000     0.353740000000     0.117020000000     0.047078   
H354     H      0.171110000000     0.399270000000     0.218450000000     0.0470623  
H355     H      0.109470000000     0.412410000000     0.252020000000     0.0476975  
H356     H      0.072550000000     0.407630000000     0.139670000000     0.0516591  
H357     H      0.211650000000     0.374090000000     0.154880000000     0.0483481  
H358     H      0.162620000000     0.339800000000     0.083280000000     0.0472908  
H359     H      0.062200000000     0.381310000000     0.177900000000     0.0471218  
H360     H      0.122010000000     0.440870000000     0.218210000000     0.0487523  
H361     H      0.325770000000     0.374870000000     0.092080000000     0.0501435  
H362     H      0.365870000000     0.322350000000     0.024300000000     0.0506051  
H363     H      0.417760000000     0.356800000000     0.999790000000     0.0470143  
H364     H      0.363080000000     0.426890000000     0.088750000000     0.0475276  
H365     H      0.387960000000     0.465320000000     0.022480000000     0.0480695  
H366     H      0.455580000000     0.409960000000     0.997950000000     0.048936   
H367     H      0.353780000000     0.367800000000     0.129450000000     0.047858   
H368     H      0.391640000000     0.317820000000     0.065320000000     0.0475968  
H369     H      0.428040000000     0.416050000000     0.959600000000     0.0470626  
H370     H      0.413420000000     0.461800000000     0.064060000000     0.0511025  
H371     H      0.333760000000     0.167570000000     0.016090000000     0.0472024  
H372     H      0.332980000000     0.141290000000     0.120580000000     0.0496692  
H373     H      0.390540000000     0.105810000000     0.126360000000     0.0475672  
H374     H      0.383040000000     0.135360000000     0.980230000000     0.0474921  
H375     H      0.404640000000     0.071780000000     0.977980000000     0.0501861  
H376     H      0.445470000000     0.081550000000     0.086810000000     0.0505202  
H377     H      0.365780000000     0.189280000000     0.027090000000     0.0507236  
H378     H      0.363930000000     0.164120000000     0.133030000000     0.0470033  
H379     H      0.416830000000     0.054410000000     0.084310000000     0.0466273  
H380     H      0.434220000000     0.097970000000     0.978380000000     0.0476302  
H381     H      0.882080000000     0.201920000000     0.629720000000     0.0480641  
H382     H      0.847470000000     0.150180000000     0.563720000000     0.0479     
H383     H      0.864110000000     0.091250000000     0.600160000000     0.0473997  
H384     H      0.912930000000     0.163610000000     0.692080000000     0.0471162  
H385     H      0.955870000000     0.113710000000     0.690190000000     0.0485559  
H386     H      0.893320000000     0.053320000000     0.662290000000     0.0487133  
H387     H      0.857620000000     0.193490000000     0.671060000000     0.0504116  
H388     H      0.821410000000     0.139570000000     0.602140000000     0.0498939  
H389     H      0.919190000000     0.060750000000     0.622280000000     0.0498979  
H390     H      0.929230000000     0.105210000000     0.728830000000     0.0474603  
H391     H      0.891980000000     0.841390000000     0.888470000000     0.0442758  
H392     H      0.839500000000     0.890250000000     0.878270000000     0.0468884  
H393     H      0.849620000000     0.918560000000     0.790950000000     0.0474135  
H394     H      0.929200000000     0.844570000000     0.810280000000     0.0476722  
H395     H      0.959580000000     0.889110000000     0.767880000000     0.0545792  
H396     H      0.887340000000     0.920480000000     0.710930000000     0.0475066  
H397     H      0.882710000000     0.815900000000     0.848810000000     0.0546198  
H398     H      0.819110000000     0.874330000000     0.836670000000     0.047372   
H399     H      0.898140000000     0.946790000000     0.749160000000     0.0493323  
H400     H      0.941140000000     0.870800000000     0.726650000000     0.0457177  
H401     H      0.117760000000     0.913910000000     0.685100000000     0.0478625  
H402     H      0.070860000000     0.885840000000     0.765450000000     0.0486734  
H403     H      0.112480000000     0.858710000000     0.823580000000     0.0470665  
H404     H      0.178200000000     0.897190000000     0.714290000000     0.047047   
H405     H      0.207340000000     0.842020000000     0.738030000000     0.0495732  
H406     H      0.172760000000     0.840740000000     0.852200000000     0.0474907  
H407     H      0.130560000000     0.942770000000     0.718030000000     0.0480292  
H408     H      0.083290000000     0.914270000000     0.799330000000     0.0498644  
H409     H      0.158190000000     0.813060000000     0.818700000000     0.0492595  
H410     H      0.220120000000     0.868730000000     0.774270000000     0.0480672  
H411     H      0.158940000000     0.158260000000     0.566660000000     0.0478403  
H412     H      0.129160000000     0.204910000000     0.643330000000     0.0474911  
H413     H      0.103120000000     0.162480000000     0.704290000000     0.0470259  
H414     H      0.146130000000     0.096740000000     0.598260000000     0.0470819  
H415     H      0.093690000000     0.063800000000     0.623870000000     0.0497603  
H416     H      0.089680000000     0.101840000000     0.735860000000     0.047389   
H417     H      0.187970000000     0.145680000000     0.599420000000     0.049479   
H418     H      0.156590000000     0.194290000000     0.679830000000     0.0504232  
H419     H      0.060700000000     0.112540000000     0.701780000000     0.0492561  
H420     H      0.121710000000     0.054740000000     0.660310000000     0.0481738  
H421     H      0.968100000000     0.957480000000     0.531310000000     0.0472837  
H422     H      0.043430000000     0.961680000000     0.528560000000     0.0470718  
H423     H      0.056820000000     0.007020000000     0.461360000000     0.0470137  
H424     H      0.947610000000     0.999670000000     0.463820000000     0.0480672  
H425     H      0.959470000000     0.007330000000     0.376990000000     0.0513648  
H426     H      0.036250000000     0.050170000000     0.396020000000     0.0472497  
H427     H      0.962130000000     0.994360000000     0.549340000000     0.0522363  
H428     H      0.046080000000     0.998970000000     0.546550000000     0.0517331  
H429     H      0.042850000000     0.013850000000     0.376320000000     0.0518335  
H430     H      0.960410000000     0.044290000000     0.396490000000     0.047131   
H431     H      0.976620000000     0.964030000000     0.877890000000     0.0486558  
H432     H      0.979260000000     0.043450000000     0.876950000000     0.0475934  
H433     H      0.998330000000     0.058040000000     0.962300000000     0.0471039  
H434     H      0.995450000000     0.948400000000     0.963210000000     0.0472455  
H435     H      0.976400000000     0.964320000000     0.048840000000     0.0477539  
H436     H      0.017450000000     0.043630000000     0.045210000000     0.0496554  
H437     H      0.015970000000     0.962040000000     0.879970000000     0.0492553  
H438     H      0.018680000000     0.042790000000     0.879140000000     0.0483332  
H439     H      0.978020000000     0.044020000000     0.046370000000     0.0492753  
H440     H      0.015830000000     0.963120000000     0.047620000000     0.0477855  
H441     H      0.883530000000     0.075050000000     0.204540000000     0.0486182  
H442     H      0.935210000000     0.109530000000     0.131520000000     0.0504011  
H443     H      0.905150000000     0.164610000000     0.109140000000     0.047099   
H444     H      0.834440000000     0.117620000000     0.205200000000     0.0469067  
H445     H      0.795550000000     0.145880000000     0.141790000000     0.0480639  
H446     H      0.856110000000     0.207590000000     0.111380000000     0.049542   
H447     H      0.894140000000     0.102600000000     0.240950000000     0.0478901  
H448     H      0.944340000000     0.135670000000     0.170570000000     0.0478518  
H449     H      0.846470000000     0.180560000000     0.073730000000     0.0473413  
H450     H      0.803370000000     0.171900000000     0.181550000000     0.0494558  
H451     H      0.895710000000     0.960860000000     0.280180000000     0.0518497  
H452     H      0.955230000000     0.906010000000     0.271470000000     0.0470739  
H453     H      0.923620000000     0.851320000000     0.290670000000     0.0471587  
H454     H      0.841340000000     0.923470000000     0.286640000000     0.0471965  
H455     H      0.818470000000     0.879480000000     0.344010000000     0.0462126  
H456     H      0.873050000000     0.813120000000     0.308970000000     0.0468332  
H457     H      0.883540000000     0.950550000000     0.230140000000     0.0462682  
H458     H      0.940280000000     0.895990000000     0.222750000000     0.048992   
H459     H      0.879700000000     0.830500000000     0.357260000000     0.0491832  
H460     H      0.811370000000     0.864680000000     0.294250000000     0.0517786  
H461     H      0.165860000000     0.829350000000     0.238460000000     0.0498047  
H462     H      0.197110000000     0.879140000000     0.315640000000     0.0482302  
H463     H      0.151360000000     0.925700000000     0.321490000000     0.0468627  
H464     H      0.108750000000     0.857030000000     0.218790000000     0.0470694  
H465     H      0.088810000000     0.916180000000     0.189210000000     0.0477649  
H466     H      0.094850000000     0.954230000000     0.301010000000     0.049054   
H467     H      0.140040000000     0.816700000000     0.275940000000     0.0479778  
H468     H      0.170430000000     0.865650000000     0.351380000000     0.0478461  
H469     H      0.120290000000     0.965970000000     0.262470000000     0.0481935  
H470     H      0.062710000000     0.903080000000     0.226040000000     0.0493328  
H471     H      0.153560000000     0.204450000000     0.112660000000     0.0492595  
H472     H      0.201480000000     0.172480000000     0.191620000000     0.0491835  
H473     H      0.169680000000     0.118340000000     0.214920000000     0.0470427  
H474     H      0.105560000000     0.160070000000     0.106150000000     0.0470204  
H475     H      0.062530000000     0.132510000000     0.163230000000     0.0478731  
H476     H      0.121360000000     0.074630000000     0.210620000000     0.0483271  
H477     H      0.166000000000     0.176490000000     0.078040000000     0.0475682  
H478     H      0.212580000000     0.145080000000     0.155340000000     0.0486151  
H479     H      0.108140000000     0.103380000000     0.243390000000     0.0481035  
H480     H      0.075030000000     0.104680000000     0.128500000000     0.0499461  
N1       N      0.996470000000     0.553530000000     0.559890000000    -0.153705   
N2       N      0.003450000000     0.498740000000     0.366990000000    -0.154987   
N3       N      0.000270000000     0.504310000000     0.858020000000    -0.156427   
N4       N      0.012290000000     0.519440000000     0.063120000000    -0.155246   
N5       N      0.491280000000     0.517360000000     0.838590000000    -0.156376   
N6       N      0.501150000000     0.530030000000     0.633680000000    -0.156085   
N7       N      0.501330000000     0.542830000000     0.139490000000    -0.155939   
N8       N      0.519100000000     0.501740000000     0.336180000000    -0.155354   
N9       N      0.922040000000     0.441690000000     0.677610000000    -0.157276   
N10      N      0.820660000000     0.340460000000     0.625520000000    -0.157427   
N11      N      0.573720000000     0.424410000000     0.509790000000    -0.155416   
N12      N      0.678070000000     0.324660000000     0.561570000000    -0.155044   
N13      N      0.746990000000     0.244760000000     0.743800000000    -0.157307   
N14      N      0.752980000000     0.270730000000     0.946510000000    -0.157216   
N15      N      0.780560000000     0.251900000000     0.442300000000    -0.15688    
N16      N      0.728890000000     0.261460000000     0.250070000000    -0.157231   
N17      N      0.928290000000     0.428600000000     0.182490000000    -0.15675    
N18      N      0.817610000000     0.340560000000     0.118980000000    -0.156645   
N19      N      0.579510000000     0.453730000000     0.015970000000    -0.156953   
N20      N      0.659790000000     0.339070000000     0.085110000000    -0.156915   
N21      N      0.853050000000     0.688150000000     0.854160000000    -0.157943   
N22      N      0.918670000000     0.588940000000     0.732390000000    -0.156861   
N23      N      0.698810000000     0.680920000000     0.884740000000    -0.156629   
N24      N      0.584690000000     0.598460000000     0.951200000000    -0.156699   
N25      N      0.782980000000     0.748480000000     0.513980000000    -0.15568    
N26      N      0.774060000000     0.765470000000     0.718580000000    -0.15633    
N27      N      0.738480000000     0.755530000000     0.220020000000    -0.156049   
N28      N      0.776650000000     0.763580000000     0.021680000000    -0.156724   
N29      N      0.840550000000     0.679320000000     0.334100000000    -0.155315   
N30      N      0.931890000000     0.581550000000     0.242080000000    -0.155181   
N31      N      0.685170000000     0.678620000000     0.395220000000    -0.156274   
N32      N      0.590450000000     0.582080000000     0.482770000000    -0.154928   
N33      N      0.584420000000     0.934200000000     0.456690000000    -0.15671    
N34      N      0.688370000000     0.835310000000     0.401910000000    -0.157577   
N35      N      0.576410000000     0.081130000000     0.510280000000    -0.156637   
N36      N      0.683390000000     0.175370000000     0.569540000000    -0.156045   
N37      N      0.512160000000     0.004130000000     0.837260000000    -0.155945   
N38      N      0.493800000000     0.986110000000     0.633440000000    -0.155009   
N39      N      0.513520000000     0.957740000000     0.135970000000    -0.154415   
N40      N      0.496720000000     0.007330000000     0.330020000000    -0.154976   
N41      N      0.688960000000     0.833990000000     0.876590000000    -0.156584   
N42      N      0.585340000000     0.916030000000     0.970410000000    -0.155902   
N43      N      0.580800000000     0.069850000000     0.014360000000    -0.158006   
N44      N      0.669500000000     0.182400000000     0.066430000000    -0.158255   
N45      N      0.079990000000     0.586160000000     0.743440000000    -0.155989   
N46      N      0.186810000000     0.676350000000     0.813400000000    -0.15632    
N47      N      0.346700000000     0.667610000000     0.824000000000    -0.156322   
N48      N      0.426190000000     0.608080000000     0.975950000000    -0.15585    
N49      N      0.350300000000     0.823160000000     0.842010000000    -0.158127   
N50      N      0.425950000000     0.926430000000     0.945750000000    -0.156952   
N51      N      0.231570000000     0.759070000000     0.472990000000    -0.156528   
N52      N      0.275890000000     0.746970000000     0.668440000000    -0.156472   
N53      N      0.274270000000     0.765790000000     0.175660000000    -0.156204   
N54      N      0.267090000000     0.745720000000     0.971400000000    -0.156456   
N55      N      0.089450000000     0.573850000000     0.227470000000    -0.157124   
N56      N      0.182810000000     0.680260000000     0.289150000000    -0.15801    
N57      N      0.432130000000     0.587190000000     0.439060000000    -0.155553   
N58      N      0.330240000000     0.680160000000     0.359130000000    -0.155088   
N59      N      0.333480000000     0.834180000000     0.358620000000    -0.155038   
N60      N      0.425810000000     0.923100000000     0.464510000000    -0.154585   
N61      N      0.174790000000     0.339440000000     0.623990000000    -0.158378   
N62      N      0.069350000000     0.438330000000     0.669080000000    -0.157682   
N63      N      0.426380000000     0.436790000000     0.507650000000    -0.154391   
N64      N      0.327120000000     0.337490000000     0.578650000000    -0.154579   
N65      N      0.321660000000     0.179020000000     0.568510000000    -0.156447   
N66      N      0.424880000000     0.084500000000     0.498230000000    -0.156829   
N67      N      0.260760000000     0.265730000000     0.953320000000    -0.157419   
N68      N      0.264380000000     0.252780000000     0.747970000000    -0.157081   
N69      N      0.290340000000     0.261500000000     0.255110000000    -0.157434   
N70      N      0.238140000000     0.263440000000     0.447080000000    -0.157379   
N71      N      0.081910000000     0.420100000000     0.201100000000    -0.156516   
N72      N      0.193150000000     0.334690000000     0.131560000000    -0.156041   
N73      N      0.429690000000     0.448560000000     0.005840000000    -0.157108   
N74      N      0.350550000000     0.335670000000     0.082960000000    -0.156989   
N75      N      0.434520000000     0.067180000000     0.027080000000    -0.157539   
N76      N      0.341220000000     0.175990000000     0.078920000000    -0.158242   
N77      N      0.932960000000     0.073410000000     0.681780000000    -0.156322   
N78      N      0.842600000000     0.180700000000     0.612070000000    -0.155999   
N79      N      0.931370000000     0.916130000000     0.730720000000    -0.156614   
N80      N      0.848010000000     0.845020000000     0.868910000000    -0.15672    
N81      N      0.198960000000     0.831650000000     0.800340000000    -0.156773   
N82      N      0.090630000000     0.922550000000     0.736300000000    -0.157296   
N83      N      0.083030000000     0.073070000000     0.685810000000    -0.156202   
N84      N      0.167290000000     0.185580000000     0.617680000000    -0.156769   
N85      N      0.999510000000     0.030860000000     0.366920000000    -0.155851   
N86      N      0.005360000000     0.977050000000     0.558770000000    -0.155921   
N87      N      0.997580000000     0.004010000000     0.065930000000    -0.15684    
N88      N      0.998730000000     0.003010000000     0.859640000000    -0.156889   
N89      N      0.815670000000     0.185390000000     0.121710000000    -0.156188   
N90      N      0.923980000000     0.096680000000     0.192040000000    -0.156626   
N91      N      0.837010000000     0.837370000000     0.333230000000    -0.154324   
N92      N      0.927270000000     0.938050000000     0.244130000000    -0.154299   
N93      N      0.082310000000     0.944320000000     0.239970000000    -0.156063   
N94      N      0.177590000000     0.838160000000     0.300090000000    -0.156916   
N95      N      0.081730000000     0.095130000000     0.191370000000    -0.156389   
N96      N      0.193430000000     0.183310000000     0.129430000000    -0.155568   
O1       O      0.001770000000     0.018580000000     0.216450000000    -0.365175   
O2       O      0.037960000000     0.074320000000     0.177350000000    -0.306286   
O3       O      0.024070000000     0.031230000000     0.307230000000    -0.303678   
O4       O      0.939860000000     0.056720000000     0.227550000000    -0.300076   
O5       O      0.062980000000     0.058020000000     0.230060000000    -0.300147   
O6       O      0.967990000000     0.075950000000     0.179910000000    -0.306899   
O7       O      0.975560000000     0.028070000000     0.306490000000    -0.300506   
O8       O      0.970180000000     0.953410000000     0.215450000000    -0.294545   
O9       O      0.061400000000     0.988650000000     0.250640000000    -0.301896   
O10      O      0.940750000000     0.985940000000     0.244200000000    -0.298686   
O11      O      0.040800000000     0.958190000000     0.206690000000    -0.297682   
O12      O      0.999530000000     0.982890000000     0.129230000000    -0.295008   
O13      O      0.000390000000     0.031280000000     0.122460000000    -0.309735   
O14      O      0.008040000000     0.994500000000     0.708520000000    -0.37022    
O15      O      0.002130000000     0.977190000000     0.801580000000    -0.30779    
O16      O      0.043750000000     0.055950000000     0.721400000000    -0.297479   
O17      O      0.071290000000     0.958430000000     0.695770000000    -0.30004    
O18      O      0.004290000000     0.025730000000     0.798180000000    -0.298055   
O19      O      0.045670000000     0.941040000000     0.747200000000    -0.310301   
O20      O      0.064750000000     0.027750000000     0.674780000000    -0.303191   
O21      O      0.982180000000     0.980220000000     0.619570000000    -0.302107   
O22      O      0.972820000000     0.057370000000     0.717340000000    -0.297471   
O23      O      0.030730000000     0.981890000000     0.617620000000    -0.302628   
O24      O      0.950060000000     0.027220000000     0.675180000000    -0.304395   
O25      O      0.944940000000     0.959310000000     0.701510000000    -0.302828   
O26      O      0.977660000000     0.933020000000     0.734580000000    -0.310063   
O27      O      0.271390000000     0.259560000000     0.105040000000    -0.370083   
O28      O      0.209940000000     0.223180000000     0.094410000000    -0.297254   
O29      O      0.308740000000     0.198410000000     0.120900000000    -0.303636   
O30      O      0.286580000000     0.264420000000     0.011180000000    -0.31108    
O31      O      0.238730000000     0.201980000000     0.140080000000    -0.301502   
O32      O      0.238360000000     0.260930000000     0.015310000000    -0.297752   
O33      O      0.321910000000     0.220040000000     0.063660000000    -0.309621   
O34      O      0.309130000000     0.320500000000     0.114890000000    -0.303521   
O35      O      0.284190000000     0.236790000000     0.196240000000    -0.306985   
O36      O      0.331840000000     0.290350000000     0.072780000000    -0.306457   
O37      O      0.285790000000     0.285270000000     0.194920000000    -0.30476    
O38      O      0.239470000000     0.317920000000     0.138410000000    -0.302788   
O39      O      0.209310000000     0.294690000000     0.096540000000    -0.297705   
O40      O      0.249310000000     0.259620000000     0.597590000000    -0.369758   
O41      O      0.207260000000     0.201310000000     0.582560000000    -0.302459   
O42      O      0.237370000000     0.254480000000     0.691370000000    -0.312445   
O43      O      0.309500000000     0.220820000000     0.602500000000    -0.298255   
O44      O      0.189970000000     0.228290000000     0.632860000000    -0.30659    
O45      O      0.276830000000     0.199490000000     0.562430000000    -0.30362    
O46      O      0.285530000000     0.257170000000     0.684830000000    -0.295851   
O47      O      0.280060000000     0.321900000000     0.574260000000    -0.299492   
O48      O      0.198770000000     0.298230000000     0.641680000000    -0.309484   
O49      O      0.313190000000     0.292510000000     0.602030000000    -0.295563   
O50      O      0.208680000000     0.318770000000     0.582500000000    -0.304147   
O51      O      0.241610000000     0.286470000000     0.507820000000    -0.304864   
O52      O      0.236230000000     0.238190000000     0.506170000000    -0.305268   
O53      O      0.255960000000     0.759540000000     0.325130000000    -0.366639   
O54      O      0.199000000000     0.794560000000     0.287000000000    -0.308086   
O55      O      0.241020000000     0.783740000000     0.414570000000    -0.302746   
O56      O      0.218180000000     0.697810000000     0.331280000000    -0.303509   
O57      O      0.217030000000     0.821810000000     0.336270000000    -0.300799   
O58      O      0.202570000000     0.725090000000     0.280240000000    -0.309193   
O59      O      0.236180000000     0.735340000000     0.412940000000    -0.304336   
O60      O      0.317530000000     0.720360000000     0.321400000000    -0.294765   
O61      O      0.286580000000     0.818600000000     0.357490000000    -0.302663   
O62      O      0.285170000000     0.700590000000     0.363340000000    -0.301508   
O63      O      0.320340000000     0.791660000000     0.326540000000    -0.294043   
O64      O      0.294290000000     0.759760000000     0.239390000000    -0.29355    
O65      O      0.246400000000     0.765190000000     0.231540000000    -0.311471   
O66      O      0.270320000000     0.748420000000     0.819390000000    -0.37119    
O67      O      0.241820000000     0.808960000000     0.786920000000    -0.304414   
O68      O      0.205400000000     0.719930000000     0.835330000000    -0.298005   
O69      O      0.271610000000     0.722740000000     0.728480000000    -0.301102   
O70      O      0.213120000000     0.790740000000     0.834900000000    -0.299341   
O71      O      0.281140000000     0.770540000000     0.728340000000    -0.304421   
O72      O      0.233090000000     0.690010000000     0.798790000000    -0.304299   
O73      O      0.329630000000     0.712370000000     0.840580000000    -0.311801   
O74      O      0.243260000000     0.751600000000     0.910910000000    -0.298327   
O75      O      0.302630000000     0.684000000000     0.801490000000    -0.301949   
O76      O      0.290780000000     0.741410000000     0.911640000000    -0.307      
O77      O      0.328470000000     0.779720000000     0.852300000000    -0.313867   
O78      O      0.310950000000     0.808500000000     0.804330000000    -0.302308   
O79      O      0.507610000000     0.990750000000     0.989140000000    -0.377579   
O80      O      0.543050000000     0.041410000000     0.033010000000    -0.310243   
O81      O      0.569260000000     0.962790000000     0.970850000000    -0.304575   
O82      O      0.501040000000     0.947220000000     0.070200000000    -0.295063   
O83      O      0.562750000000     0.034510000000     0.972280000000    -0.301889   
O84      O      0.516860000000     0.991470000000     0.086160000000    -0.308645   
O85      O      0.538180000000     0.927130000000     0.986810000000    -0.297711   
O86      O      0.447780000000     0.971090000000     0.946850000000    -0.301912   
O87      O      0.533900000000     0.993680000000     0.897810000000    -0.300863   
O88      O      0.466810000000     0.934530000000     0.982800000000    -0.30371    
O89      O      0.490050000000     0.014070000000     0.897500000000    -0.30154    
O90      O      0.455840000000     0.038360000000     0.979640000000    -0.304477   
O91      O      0.472490000000     0.037450000000     0.043000000000    -0.305201   
O92      O      0.500200000000     0.003340000000     0.482200000000    -0.368254   
O93      O      0.439110000000     0.042340000000     0.465940000000    -0.299015   
O94      O      0.491700000000     0.014620000000     0.577550000000    -0.306852   
O95      O      0.470830000000     0.938020000000     0.486790000000    -0.294376   
O96      O      0.466330000000     0.060810000000     0.515060000000    -0.309835   
O97      O      0.439460000000     0.970670000000     0.462210000000    -0.302013   
O98      O      0.503810000000     0.967890000000     0.570050000000    -0.294826   
O99      O      0.560690000000     0.977100000000     0.446270000000    -0.302357   
O100     O      0.534540000000     0.057100000000     0.525280000000    -0.30621    
O101     O      0.542330000000     0.945290000000     0.490260000000    -0.299241   
O102     O      0.557900000000     0.045860000000     0.468420000000    -0.300368   
O103     O      0.520610000000     0.016360000000     0.389220000000    -0.300193   
O104     O      0.473340000000     0.005220000000     0.391150000000    -0.298513   
O105     O      0.763880000000     0.756530000000     0.366150000000    -0.36532    
O106     O      0.791270000000     0.818120000000     0.332600000000    -0.300075   
O107     O      0.802810000000     0.756010000000     0.450320000000    -0.291905   
O108     O      0.711080000000     0.792090000000     0.412860000000    -0.308615   
O109     O      0.826330000000     0.793990000000     0.364920000000    -0.293347   
O110     O      0.723290000000     0.817760000000     0.358770000000    -0.302162   
O111     O      0.754900000000     0.749860000000     0.458400000000    -0.31121    
O112     O      0.726560000000     0.692540000000     0.361270000000    -0.299143   
O113     O      0.828300000000     0.722890000000     0.364030000000    -0.294207   
O114     O      0.704830000000     0.723780000000     0.402310000000    -0.307666   
O115     O      0.794010000000     0.696060000000     0.334460000000    -0.302218   
O116     O      0.746980000000     0.731060000000     0.278970000000    -0.300396   
O117     O      0.745160000000     0.779860000000     0.279160000000    -0.303158   
O118     O      0.772640000000     0.762800000000     0.870470000000    -0.371783   
O119     O      0.832420000000     0.799660000000     0.852500000000    -0.31174    
O120     O      0.734870000000     0.819810000000     0.891770000000    -0.307388   
O121     O      0.748530000000     0.760480000000     0.777740000000    -0.29869    
O122     O      0.803650000000     0.827890000000     0.889140000000    -0.302812   
O123     O      0.796390000000     0.769100000000     0.779540000000    -0.305764   
O124     O      0.708120000000     0.791470000000     0.851710000000    -0.298516   
O125     O      0.741650000000     0.702800000000     0.900750000000    -0.30486    
O126     O      0.773550000000     0.788010000000     0.961710000000    -0.301918   
O127     O      0.715200000000     0.721140000000     0.850490000000    -0.299427   
O128     O      0.780750000000     0.739820000000     0.961720000000    -0.304617   
O129     O      0.811290000000     0.702360000000     0.886560000000    -0.303558   
O130     O      0.832790000000     0.732320000000     0.843300000000    -0.313806   
O131     O      0.740370000000     0.263820000000     0.098230000000    -0.371271   
O132     O      0.801370000000     0.226960000000     0.088790000000    -0.298653   
O133     O      0.728020000000     0.238560000000     0.189120000000    -0.306025   
O134     O      0.772320000000     0.322310000000     0.129700000000    -0.304088   
O135     O      0.770240000000     0.204200000000     0.129780000000    -0.303051   
O136     O      0.802110000000     0.298880000000     0.087510000000    -0.298973   
O137     O      0.731670000000     0.286890000000     0.190970000000    -0.304615   
O138     O      0.680810000000     0.295950000000     0.068040000000    -0.306823   
O139     O      0.700450000000     0.204400000000     0.110750000000    -0.30482    
O140     O      0.701520000000     0.323190000000     0.115690000000    -0.302881   
O141     O      0.690480000000     0.225980000000     0.052200000000    -0.308116   
O142     O      0.726440000000     0.272570000000     0.003860000000    -0.309974   
O143     O      0.773840000000     0.263390000000     0.008910000000    -0.299071   
O144     O      0.759130000000     0.252690000000     0.592180000000    -0.371065   
O145     O      0.805380000000     0.294260000000     0.637430000000    -0.308122   
O146     O      0.775650000000     0.275970000000     0.501930000000    -0.306356   
O147     O      0.799710000000     0.193500000000     0.581480000000    -0.30073    
O148     O      0.791390000000     0.316370000000     0.580740000000    -0.301937   
O149     O      0.821120000000     0.224670000000     0.623590000000    -0.304443   
O150     O      0.773140000000     0.227550000000     0.501650000000    -0.303442   
O151     O      0.698130000000     0.217030000000     0.601960000000    -0.297038   
O152     O      0.723140000000     0.305610000000     0.550170000000    -0.300149   
O153     O      0.728870000000     0.193720000000     0.560790000000    -0.302853   
O154     O      0.697550000000     0.289640000000     0.603010000000    -0.296115   
O155     O      0.725850000000     0.252160000000     0.681640000000    -0.29912    
O156     O      0.773590000000     0.245010000000     0.686410000000    -0.310087   
O157     O      0.503090000000     0.529550000000     0.988950000000    -0.374866   
O158     O      0.506100000000     0.499130000000     0.899470000000    -0.300252   
O159     O      0.471940000000     0.590690000000     0.966320000000    -0.308909   
O160     O      0.445540000000     0.494660000000     0.016590000000    -0.307238   
O161     O      0.487550000000     0.544000000000     0.896330000000    -0.304798   
O162     O      0.470900000000     0.466130000000     0.975140000000    -0.29977    
O163     O      0.440800000000     0.564270000000     0.002170000000    -0.302536   
O164     O      0.525750000000     0.546780000000     0.079540000000    -0.300715   
O165     O      0.539020000000     0.580360000000     0.942240000000    -0.305153   
O166     O      0.478420000000     0.535750000000     0.079340000000    -0.3034     
O167     O      0.564220000000     0.566850000000     0.996570000000    -0.301191   
O168     O      0.560760000000     0.499210000000     0.025630000000    -0.302346   
O169     O      0.541170000000     0.470270000000     0.978780000000    -0.302079   
O170     O      0.505730000000     0.510590000000     0.485430000000    -0.372022   
O171     O      0.543660000000     0.569280000000     0.469390000000    -0.305808   
O172     O      0.525490000000     0.519290000000     0.576100000000    -0.303885   
O173     O      0.446040000000     0.551990000000     0.484490000000    -0.298447   
O174     O      0.571870000000     0.537490000000     0.501400000000    -0.297006   
O175     O      0.477120000000     0.566140000000     0.436910000000    -0.302422   
O176     O      0.478130000000     0.530200000000     0.572130000000    -0.297327   
O177     O      0.469570000000     0.450050000000     0.477960000000    -0.294498   
O178     O      0.555010000000     0.468710000000     0.526040000000    -0.303138   
O179     O      0.443820000000     0.483260000000     0.512140000000    -0.297828   
O180     O      0.541500000000     0.448300000000     0.468120000000    -0.295195   
O181     O      0.502550000000     0.482370000000     0.395830000000    -0.296727   
O182     O      0.526480000000     0.524770000000     0.396030000000    -0.30475    
O183     O      0.007010000000     0.502340000000     0.214560000000    -0.368221   
O184     O      0.040890000000     0.443950000000     0.181970000000    -0.307204   
O185     O      0.067320000000     0.531140000000     0.242950000000    -0.305395   
O186     O      0.001310000000     0.536910000000     0.126520000000    -0.29507    
O187     O      0.065550000000     0.460770000000     0.234720000000    -0.299941   
O188     O      0.017050000000     0.491270000000     0.119090000000    -0.30478    
O189     O      0.045540000000     0.561370000000     0.199660000000    -0.298907   
O190     O      0.945950000000     0.533930000000     0.241400000000    -0.300901   
O191     O      0.028840000000     0.496620000000     0.307800000000    -0.30116    
O192     O      0.975070000000     0.567100000000     0.213520000000    -0.296456   
O193     O      0.980360000000     0.494140000000     0.305880000000    -0.297994   
O194     O      0.946550000000     0.464130000000     0.223880000000    -0.301087   
O195     O      0.972120000000     0.449800000000     0.170170000000    -0.305186   
O196     O      0.998730000000     0.517780000000     0.705640000000    -0.37391    
O197     O      0.031690000000     0.468300000000     0.652330000000    -0.303876   
O198     O      0.061710000000     0.540190000000     0.736640000000    -0.300836   
O199     O      0.004040000000     0.562970000000     0.627120000000    -0.295596   
O200     O      0.051100000000     0.470950000000     0.714040000000    -0.305581   
O201     O      0.992890000000     0.517990000000     0.607220000000    -0.306153   
O202     O      0.034830000000     0.578190000000     0.716940000000    -0.300153   
O203     O      0.937060000000     0.543030000000     0.734460000000    -0.305737   
O204     O      0.022920000000     0.499700000000     0.796770000000    -0.301025   
O205     O      0.963580000000     0.578500000000     0.706720000000    -0.302627   
O206     O      0.975630000000     0.509700000000     0.798620000000    -0.302762   
O207     O      0.944080000000     0.472810000000     0.722140000000    -0.30164    
O208     O      0.960390000000     0.469600000000     0.658860000000    -0.306446   
Zn1      Zn     0.002230000000     0.049300000000     0.176270000000     0.461491   
Zn2      Zn     0.036580000000     0.024810000000     0.249820000000     0.450133   
Zn3      Zn     0.965230000000     0.022790000000     0.247220000000     0.445854   
Zn4      Zn     0.002950000000     0.979140000000     0.191740000000     0.439384   
Zn5      Zn     0.008380000000     0.962450000000     0.745910000000     0.464179   
Zn6      Zn     0.007400000000     0.032480000000     0.736690000000     0.442682   
Zn7      Zn     0.042910000000     0.989900000000     0.675160000000     0.451487   
Zn8      Zn     0.972190000000     0.989790000000     0.677480000000     0.454085   
Zn9      Zn     0.233160000000     0.259440000000     0.077480000000     0.441811   
Zn10     Zn     0.276060000000     0.225120000000     0.139320000000     0.454819   
Zn11     Zn     0.302290000000     0.258630000000     0.065630000000     0.464452   
Zn12     Zn     0.276690000000     0.295020000000     0.136920000000     0.453993   
Zn13     Zn     0.241830000000     0.225540000000     0.563650000000     0.454573   
Zn14     Zn     0.219580000000     0.260170000000     0.638570000000     0.465217   
Zn15     Zn     0.288650000000     0.257710000000     0.621910000000     0.440528   
Zn16     Zn     0.244690000000     0.295800000000     0.566890000000     0.451728   
Zn17     Zn     0.226620000000     0.761090000000     0.283450000000     0.464977   
Zn18     Zn     0.249780000000     0.795160000000     0.356820000000     0.449875   
Zn19     Zn     0.248540000000     0.724290000000     0.356860000000     0.452754   
Zn20     Zn     0.296240000000     0.757670000000     0.302590000000     0.436468   
Zn21     Zn     0.276830000000     0.783070000000     0.785930000000     0.454645   
Zn22     Zn     0.233830000000     0.752810000000     0.850000000000     0.443956   
Zn23     Zn     0.269770000000     0.712170000000     0.788050000000     0.452105   
Zn24     Zn     0.303450000000     0.745130000000     0.854430000000     0.467349   
Zn25     Zn     0.509610000000     0.014400000000     0.036500000000     0.465486   
Zn26     Zn     0.542630000000     0.996000000000     0.958140000000     0.453927   
Zn27     Zn     0.503230000000     0.950650000000     0.007490000000     0.449725   
Zn28     Zn     0.476420000000     0.004140000000     0.954300000000     0.4536     
Zn29     Zn     0.463780000000     0.006180000000     0.451500000000     0.446745   
Zn30     Zn     0.498430000000     0.032780000000     0.523620000000     0.46238    
Zn31     Zn     0.504280000000     0.964430000000     0.507320000000     0.441451   
Zn32     Zn     0.533640000000     0.011630000000     0.447410000000     0.449681   
Zn33     Zn     0.755660000000     0.792210000000     0.335500000000     0.450241   
Zn34     Zn     0.804670000000     0.757630000000     0.386810000000     0.435667   
Zn35     Zn     0.734380000000     0.755660000000     0.407440000000     0.463406   
Zn36     Zn     0.757430000000     0.719880000000     0.336570000000     0.447628   
Zn37     Zn     0.807170000000     0.766280000000     0.837870000000     0.465833   
Zn38     Zn     0.771710000000     0.798670000000     0.902270000000     0.454827   
Zn39     Zn     0.737010000000     0.758890000000     0.837700000000     0.444795   
Zn40     Zn     0.777190000000     0.727900000000     0.903730000000     0.455744   
Zn41     Zn     0.778560000000     0.263020000000     0.070850000000     0.4448     
Zn42     Zn     0.734110000000     0.228890000000     0.130770000000     0.455518   
Zn43     Zn     0.736040000000     0.298250000000     0.132400000000     0.454681   
Zn44     Zn     0.710220000000     0.264630000000     0.057770000000     0.46266    
Zn45     Zn     0.789310000000     0.254050000000     0.632480000000     0.462665   
Zn46     Zn     0.762770000000     0.286820000000     0.557490000000     0.453341   
Zn47     Zn     0.765440000000     0.217530000000     0.560270000000     0.452836   
Zn48     Zn     0.721040000000     0.253290000000     0.619790000000     0.442393   
Zn49     Zn     0.505510000000     0.492320000000     0.960470000000     0.450151   
Zn50     Zn     0.500550000000     0.560310000000     0.949940000000     0.458487   
Zn51     Zn     0.467720000000     0.531610000000     0.020630000000     0.458642   
Zn52     Zn     0.537490000000     0.536470000000     0.022030000000     0.452026   
Zn53     Zn     0.513020000000     0.541990000000     0.448590000000     0.455848   
Zn54     Zn     0.539210000000     0.509370000000     0.520600000000     0.453588   
Zn55     Zn     0.469140000000     0.519610000000     0.513010000000     0.447544   
Zn56     Zn     0.504750000000     0.473440000000     0.456720000000     0.442154   
Zn57     Zn     0.009180000000     0.472870000000     0.172940000000     0.458387   
Zn58     Zn     0.041140000000     0.496850000000     0.249160000000     0.452658   
Zn59     Zn     0.006770000000     0.541070000000     0.188620000000     0.441839   
Zn60     Zn     0.970970000000     0.497720000000     0.245510000000     0.447716   
Zn61     Zn     0.996230000000     0.494240000000     0.657370000000     0.459789   
Zn62     Zn     0.032590000000     0.506830000000     0.737320000000     0.451375   
Zn63     Zn     0.000670000000     0.558530000000     0.689130000000     0.449723   
Zn64     Zn     0.964970000000     0.510040000000     0.739270000000     0.455279   


