data_structure

_audit_creation_method RASPA-1.0
_audit_creation_date 2023-5-19
_audit_author_name 'Poobodin Mano'

_cell_length_a    34.3126
_cell_length_b    34.4186
_cell_length_c    34.4441
_cell_angle_alpha 90
_cell_angle_beta  90
_cell_angle_gamma 90
_cell_volume      40678.2

_symmetry_cell_setting          triclinic
_symmetry_space_group_name_Hall 'P 1'
_symmetry_space_group_name_H-M  'P 1'
_symmetry_Int_Tables_number     1

_symmetry_equiv_pos_as_xyz 'x,y,z'

loop_
_atom_site_label
_atom_site_type_symbol
_atom_site_fract_x
_atom_site_fract_y
_atom_site_fract_z
_atom_site_charge
C1       C      0.098510000000     0.989680000000     0.990700000000     0.362845   
C2       C      0.995610000000     0.878810000000     0.994380000000     0.360322   
C3       C      0.985320000000     0.986960000000     0.094130000000     0.362314   
C4       C      0.881670000000     0.984600000000     0.980870000000     0.361436   
C5       C      0.992130000000     0.978140000000     0.879240000000     0.360356   
C6       C      0.987280000000     0.092740000000     0.985830000000     0.359327   
C7       C      0.996520000000     0.984060000000     0.379120000000     0.363349   
C8       C      0.108740000000     0.996900000000     0.483960000000     0.360799   
C9       C      0.002270000000     0.097940000000     0.484370000000     0.35928    
C10      C      0.997320000000     0.994020000000     0.594990000000     0.361152   
C11      C      0.006460000000     0.884660000000     0.492730000000     0.360121   
C12      C      0.893100000000     0.990030000000     0.483900000000     0.360131   
C13      C      0.001610000000     0.377790000000     0.990170000000     0.361082   
C14      C      0.988970000000     0.492770000000     0.096690000000     0.361158   
C15      C      0.103970000000     0.478730000000     0.996480000000     0.357598   
C16      C      0.002410000000     0.593620000000     0.989090000000     0.361301   
C17      C      0.889830000000     0.482530000000     0.988730000000     0.359425   
C18      C      0.996870000000     0.491640000000     0.883100000000     0.360816   
C19      C      0.998110000000     0.384440000000     0.485430000000     0.361948   
C20      C      0.003800000000     0.497610000000     0.380030000000     0.36371    
C21      C      0.890830000000     0.487040000000     0.482600000000     0.359499   
C22      C      0.993100000000     0.600010000000     0.492270000000     0.361926   
C23      C      0.103760000000     0.492090000000     0.494950000000     0.357675   
C24      C      0.990160000000     0.492510000000     0.597520000000     0.364177   
C25      C      0.385020000000     0.000070000000     0.991660000000     0.360923   
C26      C      0.487400000000     0.995990000000     0.103400000000     0.359734   
C27      C      0.497940000000     0.892460000000     0.989580000000     0.361623   
C28      C      0.599310000000     0.007360000000     0.002270000000     0.36056    
C29      C      0.486460000000     0.108670000000     0.994700000000     0.364815   
C30      C      0.494650000000     0.003260000000     0.888090000000     0.364098   
C31      C      0.394070000000     0.995780000000     0.497590000000     0.359397   
C32      C      0.503970000000     0.007080000000     0.602840000000     0.363443   
C33      C      0.502050000000     0.893910000000     0.500900000000     0.362627   
C34      C      0.608600000000     0.008050000000     0.498360000000     0.359942   
C35      C      0.492460000000     0.110930000000     0.490380000000     0.360919   
C36      C      0.504960000000     0.997790000000     0.387990000000     0.359797   
C37      C      0.388780000000     0.499650000000     0.009130000000     0.360041   
C38      C      0.490840000000     0.608010000000     0.001970000000     0.36028    
C39      C      0.505070000000     0.499540000000     0.111530000000     0.362003   
C40      C      0.605160000000     0.499320000000     0.008190000000     0.360997   
C41      C      0.499130000000     0.498050000000     0.896970000000     0.360233   
C42      C      0.494440000000     0.393550000000     0.003720000000     0.362834   
C43      C      0.505220000000     0.608000000000     0.500420000000     0.359396   
C44      C      0.499420000000     0.504890000000     0.610870000000     0.361403   
C45      C      0.390360000000     0.504910000000     0.502770000000     0.360671   
C46      C      0.500670000000     0.394170000000     0.510740000000     0.358224   
C47      C      0.605540000000     0.500560000000     0.493510000000     0.361421   
C48      C      0.491420000000     0.496060000000     0.394880000000     0.362946   
C49      C      0.460860000000     0.498760000000     0.794690000000     0.0145453  
C50      C      0.425630000000     0.502140000000     0.733670000000    -0.0427852  
C51      C      0.459370000000     0.503310000000     0.669290000000    -0.0281502  
C52      C      0.460770000000     0.504340000000     0.713030000000     0.014389   
C53      C      0.531270000000     0.523650000000     0.672010000000    -0.0268764  
C54      C      0.531530000000     0.510020000000     0.713610000000     0.0156439  
C55      C      0.425670000000     0.500300000000     0.774080000000    -0.0428615  
C56      C      0.496240000000     0.504530000000     0.733440000000    -0.00622984 
C57      C      0.566790000000     0.507150000000     0.734060000000    -0.0421212  
C58      C      0.566920000000     0.498060000000     0.773610000000    -0.0423701  
C59      C      0.531920000000     0.480990000000     0.835790000000    -0.0268942  
C60      C      0.531750000000     0.494470000000     0.794120000000     0.0159657  
C61      C      0.459490000000     0.499200000000     0.838410000000    -0.0278792  
C62      C      0.496320000000     0.499190000000     0.774300000000    -0.00630317 
C63      C      0.512160000000     0.528740000000     0.214070000000     0.0156309  
C64      C      0.495930000000     0.563390000000     0.273330000000    -0.0425462  
C65      C      0.473910000000     0.527860000000     0.333470000000    -0.027064   
C66      C      0.490250000000     0.528100000000     0.292950000000     0.015943   
C67      C      0.489280000000     0.455330000000     0.336640000000    -0.0284875  
C68      C      0.493080000000     0.457280000000     0.293010000000     0.0147778  
C69      C      0.507970000000     0.563680000000     0.234610000000    -0.0422107  
C70      C      0.495960000000     0.492910000000     0.273160000000    -0.00644908 
C71      C      0.495610000000     0.422450000000     0.272070000000    -0.042962   
C72      C      0.500870000000     0.422910000000     0.231960000000    -0.0427793  
C73      C      0.508850000000     0.457330000000     0.168420000000    -0.0286093  
C74      C      0.505230000000     0.458160000000     0.212040000000     0.0147359  
C75      C      0.526860000000     0.528990000000     0.172860000000    -0.0263727  
C76      C      0.504570000000     0.493290000000     0.232890000000    -0.00605943 
C77      C      0.473800000000     0.791040000000     0.481430000000     0.0150025  
C78      C      0.455610000000     0.730430000000     0.450420000000    -0.0428326  
C79      C      0.488760000000     0.667500000000     0.465090000000    -0.0283864  
C80      C      0.483280000000     0.710200000000     0.472460000000     0.0158153  
C81      C      0.541250000000     0.667410000000     0.517330000000    -0.0280203  
C82      C      0.534650000000     0.710580000000     0.521560000000     0.0153595  
C83      C      0.450620000000     0.770260000000     0.455160000000    -0.0424116  
C84      C      0.506790000000     0.730490000000     0.499070000000    -0.00637138 
C85      C      0.558100000000     0.731500000000     0.547510000000    -0.0426693  
C86      C      0.553630000000     0.771530000000     0.551720000000    -0.0424101  
C87      C      0.521340000000     0.834950000000     0.536190000000    -0.0276328  
C88      C      0.525980000000     0.791840000000     0.529660000000     0.0149869  
C89      C      0.466750000000     0.833930000000     0.486080000000    -0.0273089  
C90      C      0.502130000000     0.771370000000     0.503470000000    -0.00583844 
C91      C      0.462520000000     0.212020000000     0.515500000000     0.0150953  
C92      C      0.444520000000     0.270440000000     0.550890000000    -0.0426195  
C93      C      0.480300000000     0.333650000000     0.543520000000    -0.028311   
C94      C      0.474300000000     0.291500000000     0.532640000000     0.0158904  
C95      C      0.538080000000     0.334590000000     0.497680000000    -0.028928   
C96      C      0.529270000000     0.292950000000     0.487550000000     0.0164648  
C97      C      0.438560000000     0.231310000000     0.542270000000    -0.042208   
C98      C      0.498850000000     0.272540000000     0.505850000000    -0.00645538 
C99      C      0.553330000000     0.273680000000     0.460870000000    -0.0428046  
C100     C      0.546910000000     0.234810000000     0.451700000000    -0.042241   
C101     C      0.510010000000     0.172260000000     0.457890000000    -0.0279361  
C102     C      0.516960000000     0.213850000000     0.469780000000     0.0155348  
C103     C      0.454930000000     0.169660000000     0.506950000000    -0.0277542  
C104     C      0.492690000000     0.232600000000     0.496930000000    -0.00576247 
C105     C      0.526180000000     0.790670000000     0.012030000000     0.015471   
C106     C      0.541610000000     0.731520000000     0.047070000000    -0.0428135  
C107     C      0.506590000000     0.668910000000     0.035340000000    -0.0284278  
C108     C      0.513840000000     0.710840000000     0.025530000000     0.0161114  
C109     C      0.455980000000     0.667050000000     0.981450000000    -0.0280344  
C110     C      0.463870000000     0.709740000000     0.975010000000     0.015495   
C111     C      0.548040000000     0.770810000000     0.040070000000    -0.0423754  
C112     C      0.491720000000     0.730160000000     0.997100000000    -0.00638818 
C113     C      0.441740000000     0.729760000000     0.947250000000    -0.0425723  
C114     C      0.447450000000     0.769340000000     0.940950000000    -0.042402   
C115     C      0.480860000000     0.832740000000     0.954200000000    -0.0280014  
C116     C      0.475070000000     0.790120000000     0.962600000000     0.0153501  
C117     C      0.534470000000     0.833050000000     0.005000000000    -0.0272868  
C118     C      0.497750000000     0.770530000000     0.990470000000    -0.00596758 
C119     C      0.457010000000     0.210490000000     0.017060000000     0.0149389  
C120     C      0.440530000000     0.270540000000     0.050100000000    -0.0427695  
C121     C      0.473720000000     0.333590000000     0.035830000000    -0.0277602  
C122     C      0.467770000000     0.291030000000     0.027730000000     0.015366   
C123     C      0.526430000000     0.333400000000     0.983580000000    -0.0280135  
C124     C      0.517830000000     0.291060000000     0.977280000000     0.0153869  
C125     C      0.435020000000     0.230840000000     0.044660000000    -0.0424913  
C126     C      0.490120000000     0.271120000000     0.999860000000    -0.00643423 
C127     C      0.539770000000     0.270730000000     0.949620000000    -0.0427928  
C128     C      0.534010000000     0.231150000000     0.943900000000    -0.042652   
C129     C      0.500750000000     0.168210000000     0.958390000000    -0.0277117  
C130     C      0.506860000000     0.210700000000     0.966360000000     0.0154046  
C131     C      0.450090000000     0.167540000000     0.012160000000    -0.0268215  
C132     C      0.484550000000     0.230560000000     0.994320000000    -0.00607888 
C133     C      0.498120000000     0.044120000000     0.786880000000     0.0138795  
C134     C      0.501000000000     0.080250000000     0.726340000000    -0.0430451  
C135     C      0.500600000000     0.047180000000     0.661340000000    -0.0280956  
C136     C      0.502760000000     0.045520000000     0.705130000000     0.0144939  
C137     C      0.523450000000     0.976190000000     0.663840000000    -0.0269731  
C138     C      0.508750000000     0.975030000000     0.704880000000     0.0157067  
C139     C      0.499870000000     0.079560000000     0.766840000000    -0.0425788  
C140     C      0.503030000000     0.009900000000     0.725070000000    -0.00647922 
C141     C      0.505360000000     0.939520000000     0.724610000000    -0.0425146  
C142     C      0.495480000000     0.938840000000     0.763930000000    -0.042249   
C143     C      0.477360000000     0.973270000000     0.825980000000    -0.0265293  
C144     C      0.492030000000     0.973640000000     0.784860000000     0.0153496  
C145     C      0.499840000000     0.044290000000     0.830660000000    -0.0271992  
C146     C      0.497680000000     0.009200000000     0.765810000000    -0.0059534  
C147     C      0.491530000000     0.956510000000     0.205260000000     0.0145868  
C148     C      0.498940000000     0.921900000000     0.266300000000    -0.0428711  
C149     C      0.502910000000     0.956230000000     0.330450000000    -0.0286506  
C150     C      0.501640000000     0.957110000000     0.286600000000     0.014792   
C151     C      0.522740000000     0.027810000000     0.325720000000    -0.02696    
C152     C      0.506470000000     0.027710000000     0.285100000000     0.0163976  
C153     C      0.494930000000     0.921610000000     0.225990000000    -0.0427464  
C154     C      0.500200000000     0.992290000000     0.265930000000    -0.00660502 
C155     C      0.501590000000     0.062690000000     0.264730000000    -0.0422798  
C156     C      0.489730000000     0.062360000000     0.225920000000    -0.0423307  
C157     C      0.469240000000     0.026490000000     0.165310000000    -0.0271245  
C158     C      0.485460000000     0.027070000000     0.205930000000     0.0164289  
C159     C      0.489460000000     0.955050000000     0.161450000000    -0.0280677  
C160     C      0.492340000000     0.991980000000     0.225500000000    -0.00648282 
C161     C      0.789040000000     0.479890000000     0.515300000000     0.0163446  
C162     C      0.731250000000     0.493480000000     0.553590000000    -0.0422661  
C163     C      0.669120000000     0.516110000000     0.521790000000    -0.027106   
C164     C      0.709700000000     0.499940000000     0.519580000000     0.0161347  
C165     C      0.661750000000     0.498770000000     0.449740000000    -0.0282501  
C166     C      0.705830000000     0.498770000000     0.448990000000     0.0144182  
C167     C      0.770230000000     0.482110000000     0.551400000000    -0.0422959  
C168     C      0.727770000000     0.495810000000     0.483320000000    -0.00639356 
C169     C      0.725150000000     0.498490000000     0.413100000000    -0.0425824  
C170     C      0.765720000000     0.495600000000     0.411370000000    -0.0428457  
C171     C      0.831700000000     0.490380000000     0.442720000000    -0.0285478  
C172     C      0.787680000000     0.490670000000     0.445370000000     0.0147611  
C173     C      0.830000000000     0.464850000000     0.512480000000    -0.0272473  
C174     C      0.768380000000     0.488800000000     0.481330000000    -0.00645985 
C175     C      0.207980000000     0.490950000000     0.466420000000     0.0161307  
C176     C      0.268600000000     0.506150000000     0.433200000000    -0.0421038  
C177     C      0.329330000000     0.523920000000     0.470710000000    -0.0268656  
C178     C      0.288090000000     0.509020000000     0.468910000000     0.0159534  
C179     C      0.330950000000     0.500210000000     0.541380000000    -0.0281274  
C180     C      0.287030000000     0.501810000000     0.539220000000     0.0143712  
C181     C      0.229240000000     0.495750000000     0.431930000000    -0.0422193  
C182     C      0.267450000000     0.502430000000     0.503430000000    -0.00613842 
C183     C      0.265380000000     0.499090000000     0.573650000000    -0.0425217  
C184     C      0.224770000000     0.497280000000     0.572500000000    -0.042864   
C185     C      0.161070000000     0.497420000000     0.536670000000    -0.0285389  
C186     C      0.205050000000     0.495730000000     0.536870000000     0.014963   
C187     C      0.166750000000     0.476010000000     0.465330000000    -0.0270805  
C188     C      0.226610000000     0.496430000000     0.502210000000    -0.00651731 
C189     C      0.785890000000     0.448780000000     0.998700000000     0.0146015  
C190     C      0.723310000000     0.418060000000     0.010690000000    -0.0427693  
C191     C      0.660890000000     0.455680000000     0.013910000000    -0.0286161  
C192     C      0.704720000000     0.454340000000     0.010800000000     0.0147238  
C193     C      0.668520000000     0.528630000000     0.024640000000    -0.0267746  
C194     C      0.709490000000     0.525040000000     0.009200000000     0.0160347  
C195     C      0.763530000000     0.415380000000     0.005510000000    -0.0426642  
C196     C      0.727010000000     0.488260000000     0.005950000000    -0.00599087 
C197     C      0.731570000000     0.558400000000     0.001270000000    -0.0420883  
C198     C      0.770280000000     0.555150000000     0.989170000000    -0.0424755  
C199     C      0.828740000000     0.514880000000     0.970500000000    -0.0275121  
C200     C      0.788500000000     0.518660000000     0.987440000000     0.016166   
C201     C      0.829600000000     0.444700000000     0.994930000000    -0.02797    
C202     C      0.767360000000     0.485250000000     0.997380000000    -0.00644745 
C203     C      0.285240000000     0.490460000000     0.044710000000     0.0143041  
C204     C      0.223040000000     0.480300000000     0.076920000000    -0.0429103  
C205     C      0.160020000000     0.474550000000     0.040390000000    -0.0291542  
C206     C      0.203930000000     0.477990000000     0.041000000000     0.0151636  
C207     C      0.166990000000     0.459550000000     0.968230000000    -0.0273935  
C208     C      0.207880000000     0.475330000000     0.970350000000     0.0162842  
C209     C      0.263310000000     0.485640000000     0.078730000000    -0.0424761  
C210     C      0.225820000000     0.480840000000     0.006600000000    -0.00640326 
C211     C      0.229500000000     0.481270000000     0.936290000000    -0.0425376  
C212     C      0.268200000000     0.493640000000     0.938290000000    -0.0421432  
C213     C      0.327070000000     0.514930000000     0.976520000000    -0.0272911  
C214     C      0.286880000000     0.497590000000     0.974330000000     0.0156691  
C215     C      0.329050000000     0.494320000000     0.047890000000    -0.0276395  
C216     C      0.266200000000     0.489630000000     0.008540000000    -0.00593198 
C217     C      0.999380000000     0.461020000000     0.779840000000     0.015437   
C218     C      0.987300000000     0.425800000000     0.719890000000    -0.042442   
C219     C      0.969580000000     0.461110000000     0.658120000000    -0.0266511  
C220     C      0.983090000000     0.460950000000     0.699680000000     0.015653   
C221     C      0.988610000000     0.533080000000     0.655660000000    -0.0282708  
C222     C      0.986500000000     0.531650000000     0.699440000000     0.0140963  
C223     C      0.996830000000     0.425870000000     0.759320000000    -0.0424289  
C224     C      0.987290000000     0.496220000000     0.719660000000    -0.00638022 
C225     C      0.986820000000     0.566600000000     0.720380000000    -0.0428086  
C226     C      0.987750000000     0.566320000000     0.760900000000    -0.042949   
C227     C      0.987950000000     0.531620000000     0.825070000000    -0.0279108  
C228     C      0.990790000000     0.531180000000     0.781280000000     0.0142515  
C229     C      0.013930000000     0.461500000000     0.821020000000    -0.026743   
C230     C      0.992390000000     0.496120000000     0.760480000000    -0.00659617 
C231     C      0.984420000000     0.464810000000     0.199430000000     0.016059   
C232     C      0.002880000000     0.430880000000     0.258480000000    -0.0423478  
C233     C      0.023710000000     0.467690000000     0.318430000000    -0.0267579  
C234     C      0.006980000000     0.466410000000     0.278060000000     0.0159195  
C235     C      0.002120000000     0.538690000000     0.322050000000    -0.028355   
C236     C      0.000030000000     0.536900000000     0.278260000000     0.014547   
C237     C      0.990360000000     0.430060000000     0.219910000000    -0.0424586  
C238     C      0.999320000000     0.501250000000     0.258330000000    -0.00636226 
C239     C      0.996070000000     0.571590000000     0.257280000000    -0.042727   
C240     C      0.991570000000     0.570920000000     0.217010000000    -0.0429881  
C241     C      0.986500000000     0.535940000000     0.153240000000    -0.0288673  
C242     C      0.988910000000     0.535500000000     0.197060000000     0.0149677  
C243     C      0.968490000000     0.464180000000     0.158740000000    -0.026884   
C244     C      0.990860000000     0.500490000000     0.218060000000    -0.00639438 
C245     C      0.996570000000     0.701420000000     0.532730000000     0.014469   
C246     C      0.002780000000     0.762290000000     0.567930000000    -0.042861   
C247     C      0.004550000000     0.826900000000     0.534090000000    -0.028597   
C248     C      0.004670000000     0.783000000000     0.532920000000     0.0149908  
C249     C      0.025310000000     0.822810000000     0.462730000000    -0.0271103  
C250     C      0.009180000000     0.782170000000     0.462350000000     0.0164021  
C251     C      0.999890000000     0.721840000000     0.567810000000    -0.0425731  
C252     C      0.003370000000     0.762610000000     0.497580000000    -0.00646034 
C253     C      0.004180000000     0.762120000000     0.427210000000    -0.042332   
C254     C      0.992700000000     0.723170000000     0.427260000000    -0.0421086  
C255     C      0.973430000000     0.661930000000     0.462890000000    -0.0266376  
C256     C      0.989140000000     0.702770000000     0.462360000000     0.0160764  
C257     C      0.996140000000     0.657560000000     0.533540000000    -0.027838   
C258     C      0.996280000000     0.722070000000     0.497540000000    -0.00603789 
C259     C      0.004600000000     0.200370000000     0.445790000000     0.0143781  
C260     C      0.005650000000     0.261890000000     0.411150000000    -0.0426029  
C261     C      0.006430000000     0.326090000000     0.445850000000    -0.0277025  
C262     C      0.002370000000     0.282370000000     0.446200000000     0.0142566  
C263     C      0.978780000000     0.322800000000     0.515270000000    -0.0269398  
C264     C      0.992360000000     0.281280000000     0.516110000000     0.015732   
C265     C      0.005610000000     0.221330000000     0.410870000000    -0.0428765  
C266     C      0.999380000000     0.261630000000     0.481170000000    -0.00658034 
C267     C      0.992990000000     0.260610000000     0.551220000000    -0.0423894  
C268     C      0.001360000000     0.220910000000     0.551500000000    -0.0423189  
C269     C      0.019240000000     0.158930000000     0.516860000000    -0.026975   
C270     C      0.006120000000     0.200600000000     0.516490000000     0.0158975  
C271     C      0.002120000000     0.156560000000     0.444330000000    -0.0276651  
C272     C      0.003380000000     0.220650000000     0.481170000000    -0.00631801 
C273     C      0.789950000000     0.965990000000     0.507160000000     0.0157166  
C274     C      0.730220000000     0.951510000000     0.542020000000    -0.0423872  
C275     C      0.668770000000     0.989540000000     0.532330000000    -0.0287247  
C276     C      0.710550000000     0.981090000000     0.522060000000     0.015692   
C277     C      0.668970000000     0.042680000000     0.481230000000    -0.0279904  
C278     C      0.711370000000     0.033430000000     0.474110000000     0.0153593  
C279     C      0.769280000000     0.943740000000     0.534310000000    -0.0425439  
C280     C      0.730720000000     0.003710000000     0.494610000000    -0.00544184 
C281     C      0.732180000000     0.056010000000     0.447360000000    -0.0422612  
C282     C      0.771520000000     0.048890000000     0.440380000000    -0.0426878  
C283     C      0.833540000000     0.012110000000     0.451090000000    -0.0278739  
C284     C      0.791240000000     0.019360000000     0.460370000000     0.0159644  
C285     C      0.831970000000     0.956110000000     0.499140000000    -0.027626   
C286     C      0.770860000000     0.996260000000     0.487290000000    -0.00672396 
C287     C      0.210110000000     0.026200000000     0.509100000000     0.0157551  
C288     C      0.268980000000     0.042260000000     0.544720000000    -0.0425469  
C289     C      0.332920000000     0.009550000000     0.532080000000    -0.0276861  
C290     C      0.290510000000     0.015670000000     0.522590000000     0.0160279  
C291     C      0.335610000000     0.959850000000     0.477590000000    -0.0282728  
C292     C      0.292800000000     0.967000000000     0.470980000000     0.0156878  
C293     C      0.229390000000     0.047750000000     0.537780000000    -0.0423893  
C294     C      0.271680000000     0.993790000000     0.493590000000    -0.00634312 
C295     C      0.273430000000     0.945170000000     0.442570000000    -0.0425045  
C296     C      0.233720000000     0.950250000000     0.436010000000    -0.0424574  
C297     C      0.169520000000     0.982160000000     0.449220000000    -0.0282088  
C298     C      0.212180000000     0.976800000000     0.458160000000     0.0156733  
C299     C      0.167380000000     0.033470000000     0.502210000000    -0.0276613  
C300     C      0.231100000000     0.999010000000     0.486860000000    -0.00622197 
C301     C      0.968410000000     0.775760000000     0.005810000000     0.0159237  
C302     C      0.933870000000     0.715260000000     0.994610000000    -0.0426737  
C303     C      0.969520000000     0.654820000000     0.973790000000    -0.0272579  
C304     C      0.969320000000     0.695770000000     0.988820000000     0.0157579  
C305     C      0.042500000000     0.652570000000     0.990030000000    -0.0281935  
C306     C      0.040290000000     0.696480000000     0.989520000000     0.0143146  
C307     C      0.933510000000     0.754600000000     0.004380000000    -0.0422262  
C308     C      0.004480000000     0.716190000000     0.992170000000    -0.00651294 
C309     C      0.075000000000     0.717980000000     0.989290000000    -0.0428225  
C310     C      0.074140000000     0.758490000000     0.991270000000    -0.0428512  
C311     C      0.038750000000     0.822210000000     0.994930000000    -0.0286761  
C312     C      0.038690000000     0.778320000000     0.995530000000     0.0145298  
C313     C      0.968270000000     0.817540000000     0.018560000000    -0.0268402  
C314     C      0.003850000000     0.756970000000     0.997910000000    -0.00637156 
C315     C      0.988210000000     0.194130000000     0.026090000000     0.0150389  
C316     C      0.994440000000     0.254330000000     0.062250000000    -0.042678   
C317     C      0.000870000000     0.319070000000     0.029890000000    -0.0282551  
C318     C      0.998550000000     0.275370000000     0.027660000000     0.0145877  
C319     C      0.020680000000     0.316690000000     0.958350000000    -0.0269234  
C320     C      0.005500000000     0.275600000000     0.957210000000     0.0157587  
C321     C      0.990100000000     0.214100000000     0.061500000000    -0.0429646  
C322     C      0.998300000000     0.255530000000     0.991960000000    -0.00623751 
C323     C      0.002370000000     0.255840000000     0.921700000000    -0.0420029  
C324     C      0.991370000000     0.216770000000     0.920740000000    -0.0425061  
C325     C      0.970910000000     0.154750000000     0.954170000000    -0.0271499  
C326     C      0.985910000000     0.195940000000     0.955350000000     0.0162709  
C327     C      0.985590000000     0.150430000000     0.026800000000    -0.0281744  
C328     C      0.990720000000     0.214990000000     0.991090000000    -0.00644862 
C329     C      0.779080000000     0.962570000000     0.006970000000     0.015812   
C330     C      0.720500000000     0.950090000000     0.044480000000    -0.0426049  
C331     C      0.659680000000     0.989710000000     0.036840000000    -0.0286521  
C332     C      0.700900000000     0.980120000000     0.025170000000     0.0159333  
C333     C      0.659630000000     0.042670000000     0.985870000000    -0.0285877  
C334     C      0.701350000000     0.032210000000     0.976900000000     0.0158745  
C335     C      0.758950000000     0.941130000000     0.035170000000    -0.0426063  
C336     C      0.720620000000     0.002010000000     0.996740000000    -0.00576078 
C337     C      0.721660000000     0.054020000000     0.949120000000    -0.0424629  
C338     C      0.760390000000     0.045570000000     0.940380000000    -0.0425327  
C339     C      0.821620000000     0.006680000000     0.948470000000    -0.0276456  
C340     C      0.780030000000     0.015510000000     0.959640000000     0.0157706  
C341     C      0.820390000000     0.951480000000     0.997270000000    -0.027976   
C342     C      0.760110000000     0.993280000000     0.987690000000    -0.00672325 
C343     C      0.283270000000     0.976910000000     0.961390000000     0.0154358  
C344     C      0.223790000000     0.943620000000     0.942960000000    -0.0426914  
C345     C      0.159700000000     0.957100000000     0.974580000000    -0.02782    
C346     C      0.202320000000     0.965780000000     0.969560000000     0.0154582  
C347     C      0.157100000000     0.010970000000     0.025350000000    -0.0271628  
C348     C      0.200270000000     0.016300000000     0.019340000000     0.0154832  
C349     C      0.263670000000     0.949430000000     0.938610000000    -0.0425142  
C350     C      0.221390000000     0.993650000000     0.992580000000    -0.00638041 
C351     C      0.219950000000     0.043560000000     0.042320000000    -0.0424698  
C352     C      0.260000000000     0.048840000000     0.038530000000    -0.0426381  
C353     C      0.324570000000     0.034130000000     0.008240000000    -0.027745   
C354     C      0.281520000000     0.026580000000     0.012050000000     0.0157759  
C355     C      0.326290000000     0.982620000000     0.955210000000    -0.0275878  
C356     C      0.262300000000     0.999140000000     0.988590000000    -0.00642572 
C357     C      0.956030000000     0.991130000000     0.696030000000     0.0145401  
C358     C      0.919520000000     0.984760000000     0.756060000000    -0.0429715  
C359     C      0.951920000000     0.977830000000     0.820810000000    -0.0291591  
C360     C      0.954170000000     0.980210000000     0.777140000000     0.0150671  
C361     C      0.023290000000     0.956930000000     0.818450000000    -0.0269836  
C362     C      0.024800000000     0.972280000000     0.777460000000     0.0163395  
C363     C      0.920410000000     0.989330000000     0.715870000000    -0.042769   
C364     C      0.990040000000     0.980120000000     0.757390000000    -0.00650036 
C365     C      0.060530000000     0.975330000000     0.757850000000    -0.0423891  
C366     C      0.061680000000     0.986990000000     0.719010000000    -0.0420144  
C367     C      0.028330000000     0.009240000000     0.657530000000    -0.0260775  
C368     C      0.027030000000     0.993120000000     0.698210000000     0.0154674  
C369     C      0.955540000000     0.993980000000     0.652330000000    -0.0282988  
C370     C      0.991070000000     0.988160000000     0.717000000000    -0.00610947 
C371     C      0.949320000000     0.983880000000     0.197470000000     0.013949   
C372     C      0.916400000000     0.981800000000     0.259900000000    -0.0430309  
C373     C      0.952930000000     0.982610000000     0.323070000000    -0.0286141  
C374     C      0.952310000000     0.980170000000     0.279280000000     0.0143418  
C375     C      0.024100000000     0.960920000000     0.317640000000    -0.0267288  
C376     C      0.022970000000     0.973870000000     0.275980000000     0.0159473  
C377     C      0.914910000000     0.982550000000     0.219410000000    -0.0428071  
C378     C      0.986930000000     0.979290000000     0.257520000000    -0.00668107 
C379     C      0.057460000000     0.976610000000     0.254290000000    -0.0425914  
C380     C      0.056050000000     0.985780000000     0.214840000000    -0.0423021  
C381     C      0.018380000000     0.003860000000     0.154720000000    -0.0260726  
C382     C      0.020060000000     0.989260000000     0.195770000000     0.0152201  
C383     C      0.946720000000     0.982210000000     0.153680000000    -0.0276012  
C384     C      0.985440000000     0.984090000000     0.216700000000    -0.00637413 
H1       H      0.558980000000     0.514500000000     0.657870000000     0.0501521  
H2       H      0.440360000000     0.475060000000     0.848330000000     0.0454108  
H3       H      0.439780000000     0.526970000000     0.659090000000     0.0451705  
H4       H      0.559300000000     0.491070000000     0.849950000000     0.0505366  
H5       H      0.398090000000     0.499800000000     0.789390000000     0.0393445  
H6       H      0.398040000000     0.502030000000     0.718370000000     0.0392002  
H7       H      0.446290000000     0.475020000000     0.660630000000     0.0530433  
H8       H      0.445070000000     0.526730000000     0.847400000000     0.0530664  
H9       H      0.594320000000     0.511560000000     0.719300000000     0.0403042  
H10      H      0.529880000000     0.555910000000     0.671590000000     0.0478139  
H11      H      0.594550000000     0.494260000000     0.788340000000     0.0408744  
H12      H      0.531560000000     0.448700000000     0.836320000000     0.0480899  
H13      H      0.514620000000     0.438560000000     0.347850000000     0.0538031  
H14      H      0.559130000000     0.526240000000     0.173270000000     0.0461001  
H15      H      0.441570000000     0.527110000000     0.331900000000     0.0463028  
H16      H      0.483450000000     0.440820000000     0.156940000000     0.0538888  
H17      H      0.513520000000     0.591260000000     0.220500000000     0.0399127  
H18      H      0.491320000000     0.590790000000     0.288110000000     0.0399631  
H19      H      0.482720000000     0.555260000000     0.348280000000     0.0510513  
H20      H      0.519560000000     0.557320000000     0.159020000000     0.0498755  
H21      H      0.493250000000     0.394780000000     0.286890000000     0.0399023  
H22      H      0.462230000000     0.439130000000     0.343980000000     0.0448873  
H23      H      0.501700000000     0.395590000000     0.216330000000     0.0393568  
H24      H      0.535840000000     0.441260000000     0.160560000000     0.0433762  
H25      H      0.545050000000     0.654950000000     0.546920000000     0.0526764  
H26      H      0.439990000000     0.838020000000     0.503820000000     0.0451224  
H27      H      0.505940000000     0.663770000000     0.437980000000     0.0453841  
H28      H      0.550980000000     0.847860000000     0.538690000000     0.0526806  
H29      H      0.428600000000     0.785010000000     0.438100000000     0.039682   
H30      H      0.437680000000     0.715250000000     0.429430000000     0.0400024  
H31      H      0.459400000000     0.654550000000     0.460430000000     0.0538163  
H32      H      0.460660000000     0.846370000000     0.456860000000     0.0525158  
H33      H      0.579960000000     0.716690000000     0.564730000000     0.0401778  
H34      H      0.568660000000     0.662660000000     0.500780000000     0.0459018  
H35      H      0.571910000000     0.786800000000     0.572340000000     0.0398369  
H36      H      0.505840000000     0.839570000000     0.564160000000     0.0453504  
H37      H      0.547890000000     0.349440000000     0.470690000000     0.0547313  
H38      H      0.428770000000     0.167490000000     0.488050000000     0.0451208  
H39      H      0.494960000000     0.335060000000     0.572260000000     0.0455491  
H40      H      0.538860000000     0.158470000000     0.452550000000     0.053088   
H41      H      0.415130000000     0.215900000000     0.556690000000     0.0400776  
H42      H      0.425700000000     0.284420000000     0.571940000000     0.0404917  
H43      H      0.451120000000     0.347490000000     0.546280000000     0.0534467  
H44      H      0.447600000000     0.154930000000     0.534780000000     0.0532155  
H45      H      0.577130000000     0.288920000000     0.446900000000     0.0405738  
H46      H      0.562550000000     0.335260000000     0.518810000000     0.0451991  
H47      H      0.565550000000     0.220910000000     0.430440000000     0.0398956  
H48      H      0.493370000000     0.171930000000     0.430210000000     0.0446279  
H49      H      0.452610000000     0.653040000000     0.952510000000     0.0529503  
H50      H      0.560950000000     0.835450000000     0.986570000000     0.0450333  
H51      H      0.488010000000     0.667440000000     0.061740000000     0.0451701  
H52      H      0.451580000000     0.845970000000     0.949800000000     0.0534374  
H53      H      0.570090000000     0.785890000000     0.056810000000     0.0397548  
H54      H      0.558470000000     0.717100000000     0.069430000000     0.0399195  
H55      H      0.535240000000     0.655410000000     0.042290000000     0.0540038  
H56      H      0.541430000000     0.846920000000     0.033370000000     0.0527514  
H57      H      0.419930000000     0.714580000000     0.930300000000     0.0401792  
H58      H      0.428040000000     0.663910000000     0.997490000000     0.0455014  
H59      H      0.430110000000     0.783920000000     0.919060000000     0.0398931  
H60      H      0.497610000000     0.835780000000     0.926750000000     0.0448867  
H61      H      0.530830000000     0.347030000000     0.954590000000     0.0530935  
H62      H      0.422420000000     0.163350000000     0.995910000000     0.0445331  
H63      H      0.490100000000     0.336620000000     0.063520000000     0.0455079  
H64      H      0.529720000000     0.155110000000     0.952020000000     0.0532596  
H65      H      0.413600000000     0.215840000000     0.062240000000     0.0396915  
H66      H      0.423450000000     0.285410000000     0.072000000000     0.0400304  
H67      H      0.444490000000     0.347110000000     0.039680000000     0.0531272  
H68      H      0.445920000000     0.154510000000     0.041460000000     0.0521446  
H69      H      0.561480000000     0.285660000000     0.932310000000     0.0399272  
H70      H      0.554060000000     0.335990000000     0.000250000000     0.0455698  
H71      H      0.551020000000     0.216310000000     0.921930000000     0.0396667  
H72      H      0.482160000000     0.165070000000     0.932130000000     0.0443133  
H73      H      0.515770000000     0.948320000000     0.649270000000     0.0502663  
H74      H      0.477710000000     0.065140000000     0.841790000000     0.0446135  
H75      H      0.523050000000     0.067920000000     0.650690000000     0.0455092  
H76      H      0.485520000000     0.945140000000     0.839770000000     0.0494143  
H77      H      0.500030000000     0.106780000000     0.782650000000     0.0393172  
H78      H      0.500800000000     0.107990000000     0.711470000000     0.0399659  
H79      H      0.471400000000     0.058700000000     0.653320000000     0.0528352  
H80      H      0.528870000000     0.055790000000     0.839320000000     0.0523073  
H81      H      0.509890000000     0.912310000000     0.709470000000     0.0401419  
H82      H      0.555730000000     0.978900000000     0.664230000000     0.0475534  
H83      H      0.491010000000     0.911120000000     0.778150000000     0.040052   
H84      H      0.445040000000     0.975450000000     0.825640000000     0.0478116  
H85      H      0.515000000000     0.055800000000     0.339990000000     0.0503524  
H86      H      0.464710000000     0.936020000000     0.152870000000     0.0448845  
H87      H      0.527630000000     0.937470000000     0.339680000000     0.0453617  
H88      H      0.476720000000     0.054400000000     0.150730000000     0.0509377  
H89      H      0.494110000000     0.894010000000     0.210880000000     0.0398027  
H90      H      0.500130000000     0.894510000000     0.281760000000     0.0398988  
H91      H      0.475360000000     0.942610000000     0.340710000000     0.0536965  
H92      H      0.516500000000     0.940710000000     0.150870000000     0.0530849  
H93      H      0.506490000000     0.090290000000     0.279010000000     0.0403312  
H94      H      0.555030000000     0.025740000000     0.324220000000     0.0475228  
H95      H      0.484360000000     0.089710000000     0.211320000000     0.0405585  
H96      H      0.436980000000     0.024120000000     0.166800000000     0.0476362  
H97      H      0.651630000000     0.471180000000     0.436280000000     0.0531485  
H98      H      0.828920000000     0.433010000000     0.507170000000     0.0474544  
H99      H      0.670630000000     0.548360000000     0.521110000000     0.0476747  
H100     H      0.841030000000     0.518910000000     0.430710000000     0.0538554  
H101     H      0.785850000000     0.475510000000     0.577920000000     0.0406603  
H102     H      0.717790000000     0.496850000000     0.581840000000     0.0404072  
H103     H      0.655840000000     0.507170000000     0.549920000000     0.0509195  
H104     H      0.845090000000     0.469610000000     0.540710000000     0.0514574  
H105     H      0.708730000000     0.500810000000     0.386320000000     0.0402441  
H106     H      0.651100000000     0.523350000000     0.431640000000     0.0454683  
H107     H      0.780050000000     0.496890000000     0.383380000000     0.0403965  
H108     H      0.840690000000     0.467270000000     0.422000000000     0.0451689  
H109     H      0.339150000000     0.471010000000     0.552580000000     0.0531958  
H110     H      0.167590000000     0.443770000000     0.466910000000     0.0488081  
H111     H      0.328710000000     0.556070000000     0.473650000000     0.0481192  
H112     H      0.152270000000     0.526540000000     0.547600000000     0.0537655  
H113     H      0.215290000000     0.491760000000     0.404010000000     0.0407     
H114     H      0.283990000000     0.511460000000     0.406250000000     0.0404846  
H115     H      0.344460000000     0.516550000000     0.443060000000     0.049806   
H116     H      0.153120000000     0.484090000000     0.437110000000     0.0502585  
H117     H      0.280010000000     0.498650000000     0.601520000000     0.0393756  
H118     H      0.341050000000     0.522360000000     0.562650000000     0.0450419  
H119     H      0.208620000000     0.496790000000     0.599530000000     0.0402487  
H120     H      0.149790000000     0.475120000000     0.557180000000     0.046277   
H121     H      0.655500000000     0.556260000000     0.013920000000     0.050248   
H122     H      0.836050000000     0.423910000000     0.971060000000     0.0450279  
H123     H      0.652090000000     0.441970000000     0.041810000000     0.0438145  
H124     H      0.844850000000     0.542440000000     0.975930000000     0.0517225  
H125     H      0.777270000000     0.387060000000     0.006470000000     0.0400877  
H126     H      0.706550000000     0.391680000000     0.014700000000     0.0395351  
H127     H      0.648920000000     0.437840000000     0.989740000000     0.0538627  
H128     H      0.840640000000     0.431270000000     0.022180000000     0.0532478  
H129     H      0.718620000000     0.586990000000     0.003800000000     0.0404341  
H130     H      0.669460000000     0.529700000000     0.056870000000     0.0467033  
H131     H      0.786150000000     0.581220000000     0.981370000000     0.0402172  
H132     H      0.826290000000     0.510760000000     0.938590000000     0.0475711  
H133     H      0.168060000000     0.427290000000     0.969240000000     0.0466489  
H134     H      0.340290000000     0.467630000000     0.062270000000     0.0530047  
H135     H      0.148080000000     0.499590000000     0.057000000000     0.0546926  
H136     H      0.324480000000     0.547040000000     0.978710000000     0.0469916  
H137     H      0.277450000000     0.486330000000     0.106840000000     0.0401237  
H138     H      0.206660000000     0.477810000000     0.103700000000     0.0402994  
H139     H      0.151530000000     0.447370000000     0.055650000000     0.0445462  
H140     H      0.335870000000     0.519050000000     0.067540000000     0.0450142  
H141     H      0.216200000000     0.476970000000     0.908100000000     0.0404472  
H142     H      0.153780000000     0.468380000000     0.940040000000     0.0511378  
H143     H      0.283690000000     0.499910000000     0.911610000000     0.0398885  
H144     H      0.342840000000     0.507900000000     0.949150000000     0.0512609  
H145     H      0.016780000000     0.546950000000     0.647670000000     0.0530766  
H146     H      0.046190000000     0.464420000000     0.820410000000     0.0482632  
H147     H      0.937230000000     0.462560000000     0.657500000000     0.0470584  
H148     H      0.957670000000     0.540040000000     0.832970000000     0.0522307  
H149     H      0.002040000000     0.398460000000     0.773880000000     0.0400958  
H150     H      0.983850000000     0.398290000000     0.705000000000     0.0399647  
H151     H      0.978820000000     0.433480000000     0.644010000000     0.049813   
H152     H      0.006930000000     0.433210000000     0.835080000000     0.0499795  
H153     H      0.986000000000     0.594200000000     0.705260000000     0.0391097  
H154     H      0.964550000000     0.551830000000     0.644810000000     0.0442803  
H155     H      0.986350000000     0.593650000000     0.776440000000     0.03972    
H156     H      0.008100000000     0.554250000000     0.836450000000     0.0458154  
H157     H      0.974730000000     0.552450000000     0.332540000000     0.0534187  
H158     H      0.936230000000     0.466780000000     0.160130000000     0.0470632  
H159     H      0.055850000000     0.471160000000     0.316550000000     0.0466943  
H160     H      0.012790000000     0.551320000000     0.142220000000     0.0542602  
H161     H      0.985750000000     0.402270000000     0.205890000000     0.0399229  
H162     H      0.008950000000     0.403740000000     0.273210000000     0.0397502  
H163     H      0.017370000000     0.439620000000     0.333240000000     0.0502309  
H164     H      0.975510000000     0.435750000000     0.144970000000     0.0506523  
H165     H      0.996730000000     0.599320000000     0.272150000000     0.0395267  
H166     H      0.026960000000     0.557670000000     0.330470000000     0.0441913  
H167     H      0.989850000000     0.598150000000     0.201340000000     0.040198   
H168     H      0.960340000000     0.552860000000     0.144450000000     0.0446621  
H169     H      0.017850000000     0.837260000000     0.434760000000     0.0505687  
H170     H      0.972630000000     0.647780000000     0.553530000000     0.0438781  
H171     H      0.028480000000     0.836810000000     0.553490000000     0.0454415  
H172     H      0.980170000000     0.647690000000     0.434640000000     0.0498247  
H173     H      0.999890000000     0.706390000000     0.595210000000     0.0393105  
H174     H      0.003820000000     0.777510000000     0.595440000000     0.0402441  
H175     H      0.976360000000     0.836280000000     0.547000000000     0.0537032  
H176     H      0.024190000000     0.647740000000     0.546430000000     0.0534991  
H177     H      0.008700000000     0.776750000000     0.399740000000     0.0405269  
H178     H      0.057580000000     0.821410000000     0.465160000000     0.0480106  
H179     H      0.987160000000     0.708770000000     0.399840000000     0.0401381  
H180     H      0.941240000000     0.662990000000     0.466340000000     0.0480855  
H181     H      0.986070000000     0.336710000000     0.543560000000     0.0500794  
H182     H      0.025690000000     0.145520000000     0.425090000000     0.0454991  
H183     H      0.987000000000     0.338010000000     0.422880000000     0.0458342  
H184     H      0.008440000000     0.144900000000     0.543950000000     0.0506132  
H185     H      0.006800000000     0.206180000000     0.383330000000     0.0399836  
H186     H      0.008100000000     0.277400000000     0.383880000000     0.0394223  
H187     H      0.037060000000     0.333170000000     0.437970000000     0.0522689  
H188     H      0.973990000000     0.148740000000     0.430280000000     0.0527621  
H189     H      0.987350000000     0.275290000000     0.578460000000     0.0401785  
H190     H      0.946570000000     0.323190000000     0.511770000000     0.0486495  
H191     H      0.003630000000     0.205920000000     0.579060000000     0.0404541  
H192     H      0.051630000000     0.158140000000     0.517200000000     0.0479522  
H193     H      0.655110000000     0.048610000000     0.452610000000     0.0532052  
H194     H      0.832890000000     0.930470000000     0.479540000000     0.0456082  
H195     H      0.668050000000     0.007080000000     0.559420000000     0.0454637  
H196     H      0.848070000000     0.040880000000     0.448170000000     0.054071   
H197     H      0.783540000000     0.920300000000     0.549770000000     0.0403416  
H198     H      0.715180000000     0.934210000000     0.563610000000     0.0401908  
H199     H      0.654090000000     0.961310000000     0.538210000000     0.0541041  
H200     H      0.845940000000     0.947320000000     0.526960000000     0.0528402  
H201     H      0.717820000000     0.079250000000     0.431680000000     0.0401106  
H202     H      0.667020000000     0.069480000000     0.499130000000     0.045367   
H203     H      0.786730000000     0.066610000000     0.419250000000     0.0403044  
H204     H      0.835480000000     0.996920000000     0.422680000000     0.0443651  
H205     H      0.349690000000     0.956700000000     0.448650000000     0.0538359  
H206     H      0.164240000000     0.060730000000     0.485190000000     0.0451794  
H207     H      0.335130000000     0.990750000000     0.558230000000     0.0455361  
H208     H      0.156820000000     0.952960000000     0.443420000000     0.0534427  
H209     H      0.213630000000     0.068870000000     0.555040000000     0.040165   
H210     H      0.282960000000     0.058930000000     0.567480000000     0.0403148  
H211     H      0.345830000000     0.038360000000     0.539200000000     0.0532901  
H212     H      0.153180000000     0.038490000000     0.530840000000     0.0531725  
H213     H      0.289230000000     0.924140000000     0.425240000000     0.0401435  
H214     H      0.339140000000     0.932010000000     0.493580000000     0.0450149  
H215     H      0.219660000000     0.933270000000     0.413520000000     0.0401148  
H216     H      0.166660000000     0.999920000000     0.422420000000     0.0449843  
H217     H      0.056910000000     0.643710000000     0.017570000000     0.0529919  
H218     H      0.972720000000     0.818560000000     0.050510000000     0.0471895  
H219     H      0.969150000000     0.655540000000     0.941520000000     0.0473461  
H220     H      0.051670000000     0.831550000000     0.966810000000     0.0534706  
H221     H      0.905900000000     0.768680000000     0.010240000000     0.040082   
H222     H      0.906440000000     0.699950000000     0.991760000000     0.0399913  
H223     H      0.942470000000     0.640060000000     0.983890000000     0.051188   
H224     H      0.939250000000     0.830560000000     0.012220000000     0.0506623  
H225     H      0.102870000000     0.703320000000     0.987260000000     0.0401002  
H226     H      0.061130000000     0.642910000000     0.965410000000     0.0456454  
H227     H      0.101300000000     0.774470000000     0.989700000000     0.0396072  
H228     H      0.057860000000     0.832820000000     0.018760000000     0.0447735  
H229     H      0.012660000000     0.331510000000     0.930740000000     0.0503717  
H230     H      0.959030000000     0.141960000000     0.043270000000     0.0447187  
H231     H      0.026360000000     0.327130000000     0.048160000000     0.0444804  
H232     H      0.981020000000     0.140710000000     0.926840000000     0.0509279  
H233     H      0.987990000000     0.198430000000     0.088710000000     0.0397152  
H234     H      0.994770000000     0.269180000000     0.090000000000     0.0393115  
H235     H      0.973990000000     0.329450000000     0.044690000000     0.0534957  
H236     H      0.011010000000     0.139460000000     0.043610000000     0.0538223  
H237     H      0.008060000000     0.270810000000     0.894620000000     0.0401387  
H238     H      0.052990000000     0.315980000000     0.960510000000     0.0470816  
H239     H      0.987560000000     0.202620000000     0.892910000000     0.040797   
H240     H      0.938530000000     0.155300000000     0.954000000000     0.0474381  
H241     H      0.644970000000     0.049950000000     0.957990000000     0.0542639  
H242     H      0.819770000000     0.925840000000     0.977670000000     0.0443657  
H243     H      0.660310000000     0.007840000000     0.063530000000     0.0452868  
H244     H      0.836970000000     0.034810000000     0.944010000000     0.053075   
H245     H      0.773160000000     0.917360000000     0.050180000000     0.0398016  
H246     H      0.705880000000     0.933340000000     0.066780000000     0.0400532  
H247     H      0.644500000000     0.962000000000     0.043840000000     0.0536921  
H248     H      0.835100000000     0.942180000000     0.024540000000     0.0532872  
H249     H      0.707360000000     0.077620000000     0.933950000000     0.0402457  
H250     H      0.659250000000     0.069010000000     0.004550000000     0.0449131  
H251     H      0.775180000000     0.062650000000     0.918440000000     0.0400799  
H252     H      0.821700000000     0.990590000000     0.920500000000     0.0441032  
H253     H      0.143620000000     0.040310000000     0.027640000000     0.0529538  
H254     H      0.330530000000     0.999950000000     0.928290000000     0.0456078  
H255     H      0.156650000000     0.930140000000     0.992110000000     0.0455021  
H256     H      0.336640000000     0.037880000000     0.038020000000     0.0532452  
H257     H      0.279410000000     0.932220000000     0.917440000000     0.0399504  
H258     H      0.209550000000     0.921690000000     0.925410000000     0.0398479  
H259     H      0.147190000000     0.951580000000     0.945260000000     0.0531265  
H260     H      0.339800000000     0.953650000000     0.950110000000     0.0527552  
H261     H      0.204160000000     0.060940000000     0.063320000000     0.0400779  
H262     H      0.152430000000     0.995470000000     0.053300000000     0.0453296  
H263     H      0.274340000000     0.070410000000     0.056440000000     0.0400319  
H264     H      0.328840000000     0.061770000000     0.992080000000     0.0453213  
H265     H      0.051220000000     0.963940000000     0.833340000000     0.0504696  
H266     H      0.938420000000     0.020080000000     0.643860000000     0.0451068  
H267     H      0.933600000000     0.952410000000     0.828840000000     0.0442702  
H268     H      0.055950000000     0.999770000000     0.643420000000     0.0502464  
H269     H      0.893170000000     0.991740000000     0.700140000000     0.0398563  
H270     H      0.891640000000     0.984630000000     0.770840000000     0.0395917  
H271     H      0.937030000000     0.004610000000     0.831190000000     0.0542631  
H272     H      0.939420000000     0.968280000000     0.641070000000     0.0534161  
H273     H      0.087610000000     0.969220000000     0.772810000000     0.0406793  
H274     H      0.020010000000     0.924820000000     0.817610000000     0.0472243  
H275     H      0.089690000000     0.990890000000     0.705030000000     0.0405367  
H276     H      0.028270000000     0.041500000000     0.658990000000     0.0471539  
H277     H      0.052840000000     0.968960000000     0.330360000000     0.0500161  
H278     H      0.925360000000     0.004380000000     0.143690000000     0.0454402  
H279     H      0.934050000000     0.959180000000     0.334960000000     0.0444484  
H280     H      0.045750000000     0.995300000000     0.139580000000     0.0500097  
H281     H      0.886790000000     0.982490000000     0.205100000000     0.0396714  
H282     H      0.889410000000     0.982300000000     0.276230000000     0.0394204  
H283     H      0.940100000000     0.011090000000     0.331450000000     0.0532595  
H284     H      0.934620000000     0.953330000000     0.145590000000     0.0520506  
H285     H      0.085530000000     0.972330000000     0.268050000000     0.0401086  
H286     H      0.021130000000     0.928780000000     0.318800000000     0.0469814  
H287     H      0.083070000000     0.989920000000     0.199110000000     0.0399649  
H288     H      0.016750000000     0.036120000000     0.155180000000     0.0477273  
N1       N      0.497960000000     0.495810000000     0.857340000000    -0.154336   
N2       N      0.497760000000     0.507820000000     0.650450000000    -0.15478    
N3       N      0.510340000000     0.496380000000     0.150730000000    -0.154935   
N4       N      0.487850000000     0.493850000000     0.355410000000    -0.155151   
N5       N      0.499460000000     0.854350000000     0.504850000000    -0.154761   
N6       N      0.508980000000     0.647550000000     0.497190000000    -0.153869   
N7       N      0.488090000000     0.150460000000     0.487540000000    -0.154063   
N8       N      0.504120000000     0.354630000000     0.514730000000    -0.153143   
N9       N      0.501870000000     0.853020000000     0.985600000000    -0.154406   
N10      N      0.487210000000     0.647660000000     0.003540000000    -0.153888   
N11      N      0.482000000000     0.148040000000     0.991190000000    -0.155496   
N12      N      0.495190000000     0.353780000000     0.004730000000    -0.154873   
N13      N      0.493540000000     0.005810000000     0.848560000000    -0.155542   
N14      N      0.506690000000     0.009200000000     0.642340000000    -0.155316   
N15      N      0.484870000000     0.993490000000     0.142960000000    -0.154292   
N16      N      0.507450000000     0.994930000000     0.348450000000    -0.154273   
N17      N      0.851210000000     0.483550000000     0.480340000000    -0.154246   
N18      N      0.645080000000     0.502370000000     0.489130000000    -0.1549     
N19      N      0.143470000000     0.490860000000     0.498080000000    -0.153777   
N20      N      0.350600000000     0.507110000000     0.503840000000    -0.154619   
N21      N      0.849970000000     0.481700000000     0.987420000000    -0.154118   
N22      N      0.644610000000     0.495400000000     0.012260000000    -0.15451    
N23      N      0.348890000000     0.500190000000     0.010320000000    -0.154243   
N24      N      0.143340000000     0.473970000000     0.000830000000    -0.153559   
N25      N      0.997470000000     0.494050000000     0.843500000000    -0.154985   
N26      N      0.985710000000     0.494570000000     0.636890000000    -0.155614   
N27      N      0.984110000000     0.496780000000     0.135880000000    -0.154497   
N28      N      0.007140000000     0.500310000000     0.340590000000    -0.155345   
N29      N      0.990480000000     0.639500000000     0.495050000000    -0.154769   
N30      N      0.009530000000     0.845190000000     0.495610000000    -0.154398   
N31      N      0.004920000000     0.137540000000     0.482670000000    -0.154369   
N32      N      0.996770000000     0.344810000000     0.483240000000    -0.155146   
N33      N      0.853290000000     0.988470000000     0.480910000000    -0.154187   
N34      N      0.648350000000     0.010920000000     0.501280000000    -0.153719   
N35      N      0.148320000000     0.001440000000     0.481060000000    -0.154022   
N36      N      0.354440000000     0.991260000000     0.499870000000    -0.153993   
N37      N      0.999640000000     0.839610000000     0.999520000000    -0.154507   
N38      N      0.004190000000     0.633260000000     0.987010000000    -0.154972   
N39      N      0.984520000000     0.132330000000     0.987960000000    -0.154041   
N40      N      0.004700000000     0.338190000000     0.991710000000    -0.15478    
N41      N      0.841840000000     0.983260000000     0.978110000000    -0.154603   
N42      N      0.638940000000     0.010940000000     0.005960000000    -0.153589   
N43      N      0.345370000000     0.002660000000     0.987880000000    -0.15436    
N44      N      0.138300000000     0.988840000000     0.993870000000    -0.155055   
N45      N      0.994630000000     0.996080000000     0.634550000000    -0.154858   
N46      N      0.990310000000     0.973960000000     0.839810000000    -0.154299   
N47      N      0.984320000000     0.988330000000     0.133770000000    -0.155456   
N48      N      0.992310000000     0.978870000000     0.340030000000    -0.155492   
O1       O      0.990050000000     0.985440000000     0.986560000000    -0.368667   
O2       O      0.078630000000     0.012660000000     0.011910000000    -0.303247   
O3       O      0.019800000000     0.896980000000     0.972910000000    -0.302468   
O4       O      0.959710000000     0.967570000000     0.075570000000    -0.301755   
O5       O      0.081520000000     0.965910000000     0.968030000000    -0.306166   
O6       O      0.011660000000     0.005740000000     0.076140000000    -0.306183   
O7       O      0.968470000000     0.896920000000     0.012120000000    -0.302516   
O8       O      0.900950000000     0.008820000000     0.960450000000    -0.30218    
O9       O      0.017290000000     0.959020000000     0.898760000000    -0.301177   
O10      O      0.899260000000     0.961070000000     0.003380000000    -0.304691   
O11      O      0.967810000000     0.000430000000     0.896150000000    -0.303242   
O12      O      0.970770000000     0.074480000000     0.958040000000    -0.300538   
O13      O      0.005230000000     0.074440000000     0.012610000000    -0.303437   
O14      O      0.000970000000     0.991060000000     0.486780000000    -0.369922   
O15      O      0.972770000000     0.005880000000     0.397290000000    -0.304243   
O16      O      0.091240000000     0.972590000000     0.462110000000    -0.303011   
O17      O      0.018980000000     0.079820000000     0.512090000000    -0.303037   
O18      O      0.023330000000     0.966020000000     0.397230000000    -0.304639   
O19      O      0.984200000000     0.079520000000     0.457670000000    -0.30137    
O20      O      0.089530000000     0.017890000000     0.507710000000    -0.30357    
O21      O      0.971240000000     0.975900000000     0.575880000000    -0.303349   
O22      O      0.025700000000     0.902520000000     0.466520000000    -0.302868   
O23      O      0.025310000000     0.010930000000     0.577500000000    -0.302642   
O24      O      0.984640000000     0.903130000000     0.516430000000    -0.30124    
O25      O      0.911190000000     0.964810000000     0.504250000000    -0.302085   
O26      O      0.911870000000     0.016050000000     0.465340000000    -0.302928   
O27      O      0.997200000000     0.485680000000     0.990190000000    -0.370689   
O28      O      0.019120000000     0.396640000000     0.963500000000    -0.30247    
O29      O      0.972280000000     0.464790000000     0.079010000000    -0.302975   
O30      O      0.084930000000     0.497660000000     0.022080000000    -0.301334   
O31      O      0.981970000000     0.395550000000     0.016070000000    -0.303709   
O32      O      0.086630000000     0.463700000000     0.967250000000    -0.300353   
O33      O      0.010000000000     0.517110000000     0.078230000000    -0.301833   
O34      O      0.973420000000     0.576060000000     0.974170000000    -0.306314   
O35      O      0.908380000000     0.456890000000     0.008220000000    -0.299743   
O36      O      0.029770000000     0.574500000000     0.005370000000    -0.30088    
O37      O      0.908040000000     0.509060000000     0.970340000000    -0.304147   
O38      O      0.976040000000     0.515300000000     0.902720000000    -0.301824   
O39      O      0.017630000000     0.466020000000     0.900000000000    -0.304528   
O40      O      0.997170000000     0.492430000000     0.488580000000    -0.367343   
O41      O      0.977170000000     0.401980000000     0.510420000000    -0.304632   
O42      O      0.022700000000     0.471560000000     0.398290000000    -0.304359   
O43      O      0.908920000000     0.508840000000     0.458550000000    -0.299933   
O44      O      0.019400000000     0.403480000000     0.461800000000    -0.302449   
O45      O      0.909210000000     0.467950000000     0.508550000000    -0.303784   
O46      O      0.982110000000     0.521410000000     0.398250000000    -0.303733   
O47      O      0.015870000000     0.581650000000     0.515020000000    -0.302626   
O48      O      0.086910000000     0.472400000000     0.468320000000    -0.301065   
O49      O      0.971970000000     0.581910000000     0.467760000000    -0.30246    
O50      O      0.084090000000     0.512290000000     0.519160000000    -0.300441   
O51      O      0.010770000000     0.517790000000     0.580120000000    -0.304939   
O52      O      0.972690000000     0.466120000000     0.578400000000    -0.305003   
O53      O      0.492220000000     0.000590000000     0.995670000000    -0.368056   
O54      O      0.404280000000     0.977800000000     0.969070000000    -0.303417   
O55      O      0.468960000000     0.022760000000     0.085540000000    -0.30252    
O56      O      0.520240000000     0.910980000000     0.012710000000    -0.303257   
O57      O      0.402510000000     0.021420000000     0.016430000000    -0.30332    
O58      O      0.472710000000     0.910550000000     0.969340000000    -0.303964   
O59      O      0.507770000000     0.971220000000     0.084750000000    -0.301764   
O60      O      0.581170000000     0.028350000000     0.977640000000    -0.302932   
O61      O      0.465180000000     0.089710000000     0.018310000000    -0.304791   
O62      O      0.580830000000     0.983400000000     0.023780000000    -0.302423   
O63      O      0.510670000000     0.091030000000     0.973000000000    -0.306701   
O64      O      0.515160000000     0.027320000000     0.907350000000    -0.304425   
O65      O      0.473850000000     0.977910000000     0.905310000000    -0.305084   
O66      O      0.501260000000     0.002700000000     0.495480000000    -0.366866   
O67      O      0.413300000000     0.976620000000     0.472300000000    -0.302637   
O68      O      0.482900000000     0.031420000000     0.584460000000    -0.302643   
O69      O      0.526030000000     0.913070000000     0.521620000000    -0.303913   
O70      O      0.411520000000     0.018120000000     0.521560000000    -0.301978   
O71      O      0.479260000000     0.911530000000     0.477640000000    -0.305116   
O72      O      0.523180000000     0.981110000000     0.584790000000    -0.306109   
O73      O      0.589960000000     0.030350000000     0.475210000000    -0.300827   
O74      O      0.470560000000     0.091640000000     0.513200000000    -0.302863   
O75      O      0.590470000000     0.983670000000     0.519620000000    -0.303995   
O76      O      0.518090000000     0.093580000000     0.469910000000    -0.302132   
O77      O      0.523610000000     0.024560000000     0.405680000000    -0.301539   
O78      O      0.484530000000     0.973200000000     0.406780000000    -0.302298   
O79      O      0.497040000000     0.500800000000     0.004600000000    -0.369099   
O80      O      0.408000000000     0.482220000000     0.035660000000    -0.300613   
O81      O      0.469230000000     0.588170000000     0.979150000000    -0.300692   
O82      O      0.522160000000     0.526560000000     0.092720000000    -0.302154   
O83      O      0.406390000000     0.516900000000     0.981480000000    -0.304274   
O84      O      0.483990000000     0.474620000000     0.094070000000    -0.304804   
O85      O      0.515040000000     0.591160000000     0.024420000000    -0.304973   
O86      O      0.586230000000     0.473220000000     0.990060000000    -0.305203   
O87      O      0.472320000000     0.516460000000     0.914810000000    -0.303904   
O88      O      0.587510000000     0.528030000000     0.023780000000    -0.300467   
O89      O      0.525840000000     0.480330000000     0.915750000000    -0.301216   
O90      O      0.517600000000     0.411710000000     0.981190000000    -0.30492    
O91      O      0.472220000000     0.412090000000     0.026850000000    -0.304203   
O92      O      0.498170000000     0.501070000000     0.502830000000    -0.36871    
O93      O      0.480370000000     0.590350000000     0.479280000000    -0.304179   
O94      O      0.526160000000     0.522510000000     0.592170000000    -0.302506   
O95      O      0.408050000000     0.483110000000     0.526960000000    -0.302913   
O96      O      0.527580000000     0.589000000000     0.523220000000    -0.300652   
O97      O      0.409350000000     0.525520000000     0.478450000000    -0.302342   
O98      O      0.473370000000     0.485510000000     0.592980000000    -0.30353    
O99      O      0.523100000000     0.412010000000     0.487200000000    -0.303137   
O100     O      0.589660000000     0.517780000000     0.522180000000    -0.304509   
O101     O      0.475480000000     0.412880000000     0.530770000000    -0.299004   
O102     O      0.584940000000     0.482340000000     0.468620000000    -0.301898   
O103     O      0.508840000000     0.469110000000     0.413360000000    -0.303198   
O104     O      0.476930000000     0.524910000000     0.412930000000    -0.305403   
Zn1      Zn     0.020730000000     0.018660000000     0.020380000000     0.45383    
Zn2      Zn     0.025900000000     0.953000000000     0.956800000000     0.451284   
Zn3      Zn     0.955200000000     0.953720000000     0.018400000000     0.450273   
Zn4      Zn     0.958690000000     0.016970000000     0.951340000000     0.448929   
Zn5      Zn     0.968700000000     0.022900000000     0.453020000000     0.451917   
Zn6      Zn     0.034560000000     0.959050000000     0.454150000000     0.451664   
Zn7      Zn     0.032640000000     0.023480000000     0.520580000000     0.451124   
Zn8      Zn     0.967780000000     0.959440000000     0.519800000000     0.450169   
Zn9      Zn     0.029190000000     0.454130000000     0.955800000000     0.449886   
Zn10     Zn     0.965810000000     0.451360000000     0.022390000000     0.450597   
Zn11     Zn     0.029810000000     0.518030000000     0.022950000000     0.449668   
Zn12     Zn     0.964440000000     0.520410000000     0.960320000000     0.453587   
Zn13     Zn     0.965530000000     0.458190000000     0.520880000000     0.451987   
Zn14     Zn     0.030610000000     0.460810000000     0.455220000000     0.449189   
Zn15     Zn     0.965690000000     0.525180000000     0.454290000000     0.449153   
Zn16     Zn     0.026670000000     0.524990000000     0.524400000000     0.450829   
Zn17     Zn     0.461520000000     0.967340000000     0.961380000000     0.451982   
Zn18     Zn     0.458730000000     0.032540000000     0.028630000000     0.451364   
Zn19     Zn     0.524310000000     0.967340000000     0.028420000000     0.448889   
Zn20     Zn     0.524390000000     0.035290000000     0.964400000000     0.453841   
Zn21     Zn     0.470590000000     0.967500000000     0.463420000000     0.451218   
Zn22     Zn     0.467530000000     0.035050000000     0.527860000000     0.450006   
Zn23     Zn     0.534240000000     0.970640000000     0.528730000000     0.452957   
Zn24     Zn     0.532520000000     0.036970000000     0.462500000000     0.447175   
Zn25     Zn     0.465640000000     0.468750000000     0.039210000000     0.45209    
Zn26     Zn     0.462460000000     0.529930000000     0.970710000000     0.450469   
Zn27     Zn     0.529640000000     0.536000000000     0.035030000000     0.449043   
Zn28     Zn     0.530670000000     0.467950000000     0.973260000000     0.452524   
Zn29     Zn     0.466990000000     0.534550000000     0.469590000000     0.452418   
Zn30     Zn     0.534220000000     0.531400000000     0.534680000000     0.449644   
Zn31     Zn     0.464520000000     0.470920000000     0.537040000000     0.449436   
Zn32     Zn     0.527860000000     0.467130000000     0.468820000000     0.4509     


